Version 4
SHEET 1 1600 680
WIRE -384 48 -416 48
WIRE -240 48 -384 48
WIRE 112 48 -240 48
WIRE 448 48 336 48
WIRE 656 48 448 48
WIRE 848 48 656 48
WIRE 896 48 848 48
WIRE -272 80 -304 80
WIRE 448 80 448 48
WIRE -272 96 -272 80
WIRE -272 96 -304 96
WIRE 112 96 -272 96
WIRE -304 112 -304 96
WIRE -384 176 -384 48
WIRE 848 176 848 48
WIRE -240 192 -240 48
WIRE 112 192 -96 192
WIRE 656 192 656 48
WIRE 0 224 -16 224
WIRE 448 224 448 160
WIRE 448 224 336 224
WIRE 0 240 0 224
WIRE 112 240 0 240
WIRE 448 256 448 224
WIRE -96 272 -96 192
WIRE 0 272 0 240
WIRE -384 384 -384 256
WIRE -304 384 -304 192
WIRE -304 384 -384 384
WIRE -240 384 -240 256
WIRE -240 384 -304 384
WIRE -96 384 -96 352
WIRE -96 384 -240 384
WIRE 0 384 0 336
WIRE 0 384 -96 384
WIRE 176 384 176 288
WIRE 176 384 0 384
WIRE 208 384 176 384
WIRE 272 384 272 288
WIRE 272 384 208 384
WIRE 448 384 448 336
WIRE 448 384 272 384
WIRE 656 384 656 256
WIRE 656 384 448 384
WIRE 848 384 848 256
WIRE 848 384 656 384
WIRE 208 432 208 384
FLAG 208 432 0
FLAG -416 48 VIN
IOPIN -416 48 In
FLAG 896 48 VOUT
IOPIN 896 48 Out
FLAG -16 224 VCC
IOPIN -16 224 In
FLAG -304 80 EN
IOPIN -304 80 In
SYMBOL res 432 64 R0
SYMATTR InstName R1
SYMATTR Value 400k
SYMBOL res 432 240 R0
SYMATTR InstName R2
SYMATTR Value 82k
SYMBOL res -112 256 R0
SYMATTR InstName R3
SYMATTR Value 5.6k
SYMBOL cap -16 272 R0
SYMATTR InstName C1
SYMATTR Value 1µ
SYMATTR SpiceLine Rser=7.13m Lser=257p
SYMBOL voltage -384 160 R0
WINDOW 123 0 0 Left 0
WINDOW 39 0 0 Left 0
WINDOW 0 -73 41 Left 2
WINDOW 3 -376 267 Left 2
SYMATTR InstName V1
SYMATTR Value PWL(0 2 9.99m 2 10m 24 59.99m 24 60m 2 69.99m 2 70m 24 79.99m 24 80m 2)
SYMBOL res 832 160 R0
SYMATTR InstName R4
SYMATTR Value 2.5
SYMBOL voltage -304 96 R0
WINDOW 123 0 0 Left 0
WINDOW 39 0 0 Left 0
WINDOW 0 -73 41 Left 2
WINDOW 3 -388 372 Left 2
SYMATTR InstName V2
SYMATTR Value PWL(0 0.2 19.99m 0.2 20m 0.8 29.99m 0.8 30m 24 39.99m 24 40m 0.8 49.99m 0.8 50m 0.2 69.99m 0.2 70m 0.8)
SYMBOL WCAP-CSGP_50V_DCbias -256 192 R0
WINDOW 38 -181 121 Left 2
SYMATTR SpiceModel 1210X7R_4-7uF_885012209048
SYMATTR InstName C2
SYMBOL WCAP-CSGP_10V_DCbias 640 192 R0
WINDOW 38 -74 134 Left 2
SYMATTR SpiceModel 1210X5R_47uF_885012109007
SYMATTR InstName C3
SYMBOL 171023801_MagI3C_Power_Module 256 64 R0
SYMATTR InstName U1
TEXT -32 -312 Left 4 ;171023801 LDO Output Voltage
TEXT 632 -264 Left 2 ;Purpose: \n   Verify LDO voltage.; \nConditions: \n   VIN=24V; \n   EN=24V; \n   Ta=25 °C; \nProcedure: \n   Allows VOUT to reach the target voltage.; \n   Measure the voltage on the LDO pin.;
TEXT -152 -224 Left 2 !.tran 0 90m 0 uic
TEXT -152 -200 Left 2 !.options plotwinsize=0
TEXT -152 -168 Left 2 !.PARAM TR_MODE= {0}\n.PARAM SW_MODE_START_TIME= {0}
