**************************************************
* Manufacturer:           Würth Elektronik
* Kinds:                  Multilayer Chip Balun
* Matchcode:              WE-BAL
* Library Type:           LTspice
* Version:                rev24a
* Created/modified by:    Ella      
* Date and Time:          2024-03-07
* Team:                   eiSos EDA Service  
* Contact:                libraries@we-online.com
**************************************************
* Copyright(C) 2024 Würth Elektronik eiSos GmbH & Co. KG
* All Rights Reserved.
**************************************************
* Disclaimer: While Würth Elektronik eiSos has made every reasonable effort to ensure the accuracy
* of the simulation models provided, Würth Elektronik eiSos does not guarantee the exemption of error on
* the simulation models, nor does Würth Elektronik eiSos guarantee that the simulation model is current.
* Würth Elektronik eiSos reserves the right to make any adjustments at any time without notice.
* Würth Elektronik eiSos expressly disclaims all implied warranties regarding this simulation model.
**************************************************
.subckt 0603_7484111680 1 2 3
Vam1 1 n2 dc 0
Rport1 n2 0 50
Vam2 2 n4 dc 0
Rport2 n4 0 50
Vam3 3 n6 dc 0
Rport3 n6 0 50

Fi1 0 ni1 Vam1 50
Gi1 0 ni1 1 0 1
Rt1 ni1 0 1
Fi2 0 ni2 Vam2 50
Gi2 0 ni2 2 0 1
Rt2 ni2 0 1
Fi3 0 ni3 Vam3 50
Gi3 0 ni3 3 0 1
Rt3 ni3 0 1

Ca1 ns1 0 1e-12
Ca2 ns2 0 1e-12
Ra1 ns1 0 447.943439376
Ra2 ns2 0 447.943439376
Ga1 ns1 0 ns2 0 -0.0436844805059
Ga2 ns2 0 ns1 0 0.0436844805059
Ca3 ns3 0 1e-12
Ca4 ns4 0 1e-12
Ra3 ns3 0 991.029910903
Ra4 ns4 0 991.029910903
Ga3 ns3 0 ns4 0 -0.0381640405909
Ga4 ns4 0 ns3 0 0.0381640405909
Ca5 ns5 0 1e-12
Ca6 ns6 0 1e-12
Ra5 ns5 0 211.891516399
Ra6 ns6 0 211.891516399
Ga5 ns5 0 ns6 0 -0.036245479294
Ga6 ns6 0 ns5 0 0.036245479294
Ca7 ns7 0 1e-12
Ca8 ns8 0 1e-12
Ra7 ns7 0 319.260702974
Ra8 ns8 0 319.260702974
Ga7 ns7 0 ns8 0 -0.0353068809401
Ga8 ns8 0 ns7 0 0.0353068809401
Ca9 ns9 0 1e-12
Ca10 ns10 0 1e-12
Ra9 ns9 0 69410.0026732
Ra10 ns10 0 69410.0026732
Ga9 ns9 0 ns10 0 -0.0333438219092
Ga10 ns10 0 ns9 0 0.0333438219092
Ca11 ns11 0 1e-12
Ca12 ns12 0 1e-12
Ra11 ns11 0 689119.465844
Ra12 ns12 0 689119.465844
Ga11 ns11 0 ns12 0 -0.0334513822385
Ga12 ns12 0 ns11 0 0.0334513822385
Ca13 ns13 0 1e-12
Ca14 ns14 0 1e-12
Ra13 ns13 0 224.042097996
Ra14 ns14 0 224.042097996
Ga13 ns13 0 ns14 0 -0.0297882417159
Ga14 ns14 0 ns13 0 0.0297882417159
Ca15 ns15 0 1e-12
Ca16 ns16 0 1e-12
Ra15 ns15 0 72395.8961036
Ra16 ns16 0 72395.8961036
Ga15 ns15 0 ns16 0 -0.0273797755403
Ga16 ns16 0 ns15 0 0.0273797755403
Ca17 ns17 0 1e-12
Ca18 ns18 0 1e-12
Ra17 ns17 0 111219.996546
Ra18 ns18 0 111219.996546
Ga17 ns17 0 ns18 0 -0.0272495535001
Ga18 ns18 0 ns17 0 0.0272495535001
Ca19 ns19 0 1e-12
Ca20 ns20 0 1e-12
Ra19 ns19 0 126.811970067
Ra20 ns20 0 126.811970067
Ga19 ns19 0 ns20 0 -0.0165253130509
Ga20 ns20 0 ns19 0 0.0165253130509
Ca21 ns21 0 1e-12
Ca22 ns22 0 1e-12
Ra21 ns21 0 354863.655844
Ra22 ns22 0 354863.655844
Ga21 ns21 0 ns22 0 -0.0258371472271
Ga22 ns22 0 ns21 0 0.0258371472271
Ca23 ns23 0 1e-12
Ca24 ns24 0 1e-12
Ra23 ns23 0 69711.9049242
Ra24 ns24 0 69711.9049242
Ga23 ns23 0 ns24 0 -0.0256157740412
Ga24 ns24 0 ns23 0 0.0256157740412
Ca25 ns25 0 1e-12
Ca26 ns26 0 1e-12
Ra25 ns25 0 336.938886434
Ra26 ns26 0 336.938886434
Ga25 ns25 0 ns26 0 -0.0223433412432
Ga26 ns26 0 ns25 0 0.0223433412432
Ca27 ns27 0 1e-12
Ca28 ns28 0 1e-12
Ra27 ns27 0 173.391279116
Ra28 ns28 0 173.391279116
Ga27 ns27 0 ns28 0 -0.00554355431024
Ga28 ns28 0 ns27 0 0.00554355431024
Ca29 ns29 0 1e-12
Ca30 ns30 0 1e-12
Ra29 ns29 0 632.032713312
Ra30 ns30 0 632.032713312
Ga29 ns29 0 ns30 0 -0.00285297778723
Ga30 ns30 0 ns29 0 0.00285297778723
Ca31 ns31 0 1e-12
Ra31 ns31 0 1197.47307208
Ca32 ns32 0 1e-12
Ca33 ns33 0 1e-12
Ra32 ns32 0 3375.04395023
Ra33 ns33 0 3375.04395023
Ga32 ns32 0 ns33 0 -0.000968208450647
Ga33 ns33 0 ns32 0 0.000968208450647
Ca34 ns34 0 1e-12
Ca35 ns35 0 1e-12
Ra34 ns34 0 4685.1080844
Ra35 ns35 0 4685.1080844
Ga34 ns34 0 ns35 0 -0.00190846745901
Ga35 ns35 0 ns34 0 0.00190846745901
Ca36 ns36 0 1e-12
Ca37 ns37 0 1e-12
Ra36 ns36 0 2105.33702721
Ra37 ns37 0 2105.33702721
Ga36 ns36 0 ns37 0 -0.00357730205463
Ga37 ns37 0 ns36 0 0.00357730205463
Ca38 ns38 0 1e-12
Ca39 ns39 0 1e-12
Ra38 ns38 0 20648.4987629
Ra39 ns39 0 20648.4987629
Ga38 ns38 0 ns39 0 -0.00328089862431
Ga39 ns39 0 ns38 0 0.00328089862431
Ca40 ns40 0 1e-12
Ca41 ns41 0 1e-12
Ra40 ns40 0 3279.93670726
Ra41 ns41 0 3279.93670726
Ga40 ns40 0 ns41 0 -0.011345665188
Ga41 ns41 0 ns40 0 0.011345665188
Ca42 ns42 0 1e-12
Ca43 ns43 0 1e-12
Ra42 ns42 0 104327.145309
Ra43 ns43 0 104327.145309
Ga42 ns42 0 ns43 0 -0.0121279515585
Ga43 ns43 0 ns42 0 0.0121279515585
Ca44 ns44 0 1e-12
Ca45 ns45 0 1e-12
Ra44 ns44 0 534076.127003
Ra45 ns45 0 534076.127003
Ga44 ns44 0 ns45 0 -0.0141122647658
Ga45 ns45 0 ns44 0 0.0141122647658
Ca46 ns46 0 1e-12
Ca47 ns47 0 1e-12
Ra46 ns46 0 6220.21127852
Ra47 ns47 0 6220.21127852
Ga46 ns46 0 ns47 0 -0.0234286671948
Ga47 ns47 0 ns46 0 0.0234286671948
Ca48 ns48 0 1e-12
Ca49 ns49 0 1e-12
Ra48 ns48 0 54061.1483374
Ra49 ns49 0 54061.1483374
Ga48 ns48 0 ns49 0 -0.0225427741196
Ga49 ns49 0 ns48 0 0.0225427741196
Ca50 ns50 0 1e-12
Ca51 ns51 0 1e-12
Ra50 ns50 0 22487.0464297
Ra51 ns51 0 22487.0464297
Ga50 ns50 0 ns51 0 -0.0185921448953
Ga51 ns51 0 ns50 0 0.0185921448953
Ca52 ns52 0 1e-12
Ca53 ns53 0 1e-12
Ra52 ns52 0 162588.989593
Ra53 ns53 0 162588.989593
Ga52 ns52 0 ns53 0 -0.0190176891717
Ga53 ns53 0 ns52 0 0.0190176891717
Ca54 ns54 0 1e-12
Ca55 ns55 0 1e-12
Ra54 ns54 0 47163.1705212
Ra55 ns55 0 47163.1705212
Ga54 ns54 0 ns55 0 -0.02064774136
Ga55 ns55 0 ns54 0 0.02064774136
Ca56 ns56 0 1e-12
Ca57 ns57 0 1e-12
Ra56 ns56 0 23862.0200529
Ra57 ns57 0 23862.0200529
Ga56 ns56 0 ns57 0 -0.0205607086816
Ga57 ns57 0 ns56 0 0.0205607086816
Ca58 ns58 0 1e-12
Ca59 ns59 0 1e-12
Ra58 ns58 0 202846.015445
Ra59 ns59 0 202846.015445
Ga58 ns58 0 ns59 0 -0.0197584554444
Ga59 ns59 0 ns58 0 0.0197584554444
Ca60 ns60 0 1e-12
Ca61 ns61 0 1e-12
Ra60 ns60 0 600245.979722
Ra61 ns61 0 600245.979722
Ga60 ns60 0 ns61 0 -0.0199293735672
Ga61 ns61 0 ns60 0 0.0199293735672
Ca62 ns62 0 1e-12
Ca63 ns63 0 1e-12
Ra62 ns62 0 447.943439376
Ra63 ns63 0 447.943439376
Ga62 ns62 0 ns63 0 -0.0436844805059
Ga63 ns63 0 ns62 0 0.0436844805059
Ca64 ns64 0 1e-12
Ca65 ns65 0 1e-12
Ra64 ns64 0 991.029910903
Ra65 ns65 0 991.029910903
Ga64 ns64 0 ns65 0 -0.0381640405909
Ga65 ns65 0 ns64 0 0.0381640405909
Ca66 ns66 0 1e-12
Ca67 ns67 0 1e-12
Ra66 ns66 0 211.891516399
Ra67 ns67 0 211.891516399
Ga66 ns66 0 ns67 0 -0.036245479294
Ga67 ns67 0 ns66 0 0.036245479294
Ca68 ns68 0 1e-12
Ca69 ns69 0 1e-12
Ra68 ns68 0 319.260702974
Ra69 ns69 0 319.260702974
Ga68 ns68 0 ns69 0 -0.0353068809401
Ga69 ns69 0 ns68 0 0.0353068809401
Ca70 ns70 0 1e-12
Ca71 ns71 0 1e-12
Ra70 ns70 0 69410.0026732
Ra71 ns71 0 69410.0026732
Ga70 ns70 0 ns71 0 -0.0333438219092
Ga71 ns71 0 ns70 0 0.0333438219092
Ca72 ns72 0 1e-12
Ca73 ns73 0 1e-12
Ra72 ns72 0 689119.465844
Ra73 ns73 0 689119.465844
Ga72 ns72 0 ns73 0 -0.0334513822385
Ga73 ns73 0 ns72 0 0.0334513822385
Ca74 ns74 0 1e-12
Ca75 ns75 0 1e-12
Ra74 ns74 0 224.042097996
Ra75 ns75 0 224.042097996
Ga74 ns74 0 ns75 0 -0.0297882417159
Ga75 ns75 0 ns74 0 0.0297882417159
Ca76 ns76 0 1e-12
Ca77 ns77 0 1e-12
Ra76 ns76 0 72395.8961036
Ra77 ns77 0 72395.8961036
Ga76 ns76 0 ns77 0 -0.0273797755403
Ga77 ns77 0 ns76 0 0.0273797755403
Ca78 ns78 0 1e-12
Ca79 ns79 0 1e-12
Ra78 ns78 0 111219.996546
Ra79 ns79 0 111219.996546
Ga78 ns78 0 ns79 0 -0.0272495535001
Ga79 ns79 0 ns78 0 0.0272495535001
Ca80 ns80 0 1e-12
Ca81 ns81 0 1e-12
Ra80 ns80 0 126.811970067
Ra81 ns81 0 126.811970067
Ga80 ns80 0 ns81 0 -0.0165253130509
Ga81 ns81 0 ns80 0 0.0165253130509
Ca82 ns82 0 1e-12
Ca83 ns83 0 1e-12
Ra82 ns82 0 354863.655844
Ra83 ns83 0 354863.655844
Ga82 ns82 0 ns83 0 -0.0258371472271
Ga83 ns83 0 ns82 0 0.0258371472271
Ca84 ns84 0 1e-12
Ca85 ns85 0 1e-12
Ra84 ns84 0 69711.9049242
Ra85 ns85 0 69711.9049242
Ga84 ns84 0 ns85 0 -0.0256157740412
Ga85 ns85 0 ns84 0 0.0256157740412
Ca86 ns86 0 1e-12
Ca87 ns87 0 1e-12
Ra86 ns86 0 336.938886434
Ra87 ns87 0 336.938886434
Ga86 ns86 0 ns87 0 -0.0223433412432
Ga87 ns87 0 ns86 0 0.0223433412432
Ca88 ns88 0 1e-12
Ca89 ns89 0 1e-12
Ra88 ns88 0 173.391279116
Ra89 ns89 0 173.391279116
Ga88 ns88 0 ns89 0 -0.00554355431024
Ga89 ns89 0 ns88 0 0.00554355431024
Ca90 ns90 0 1e-12
Ca91 ns91 0 1e-12
Ra90 ns90 0 632.032713312
Ra91 ns91 0 632.032713312
Ga90 ns90 0 ns91 0 -0.00285297778723
Ga91 ns91 0 ns90 0 0.00285297778723
Ca92 ns92 0 1e-12
Ra92 ns92 0 1197.47307208
Ca93 ns93 0 1e-12
Ca94 ns94 0 1e-12
Ra93 ns93 0 3375.04395023
Ra94 ns94 0 3375.04395023
Ga93 ns93 0 ns94 0 -0.000968208450647
Ga94 ns94 0 ns93 0 0.000968208450647
Ca95 ns95 0 1e-12
Ca96 ns96 0 1e-12
Ra95 ns95 0 4685.1080844
Ra96 ns96 0 4685.1080844
Ga95 ns95 0 ns96 0 -0.00190846745901
Ga96 ns96 0 ns95 0 0.00190846745901
Ca97 ns97 0 1e-12
Ca98 ns98 0 1e-12
Ra97 ns97 0 2105.33702721
Ra98 ns98 0 2105.33702721
Ga97 ns97 0 ns98 0 -0.00357730205463
Ga98 ns98 0 ns97 0 0.00357730205463
Ca99 ns99 0 1e-12
Ca100 ns100 0 1e-12
Ra99 ns99 0 20648.4987629
Ra100 ns100 0 20648.4987629
Ga99 ns99 0 ns100 0 -0.00328089862431
Ga100 ns100 0 ns99 0 0.00328089862431
Ca101 ns101 0 1e-12
Ca102 ns102 0 1e-12
Ra101 ns101 0 3279.93670726
Ra102 ns102 0 3279.93670726
Ga101 ns101 0 ns102 0 -0.011345665188
Ga102 ns102 0 ns101 0 0.011345665188
Ca103 ns103 0 1e-12
Ca104 ns104 0 1e-12
Ra103 ns103 0 104327.145309
Ra104 ns104 0 104327.145309
Ga103 ns103 0 ns104 0 -0.0121279515585
Ga104 ns104 0 ns103 0 0.0121279515585
Ca105 ns105 0 1e-12
Ca106 ns106 0 1e-12
Ra105 ns105 0 534076.127003
Ra106 ns106 0 534076.127003
Ga105 ns105 0 ns106 0 -0.0141122647658
Ga106 ns106 0 ns105 0 0.0141122647658
Ca107 ns107 0 1e-12
Ca108 ns108 0 1e-12
Ra107 ns107 0 6220.21127852
Ra108 ns108 0 6220.21127852
Ga107 ns107 0 ns108 0 -0.0234286671948
Ga108 ns108 0 ns107 0 0.0234286671948
Ca109 ns109 0 1e-12
Ca110 ns110 0 1e-12
Ra109 ns109 0 54061.1483374
Ra110 ns110 0 54061.1483374
Ga109 ns109 0 ns110 0 -0.0225427741196
Ga110 ns110 0 ns109 0 0.0225427741196
Ca111 ns111 0 1e-12
Ca112 ns112 0 1e-12
Ra111 ns111 0 22487.0464297
Ra112 ns112 0 22487.0464297
Ga111 ns111 0 ns112 0 -0.0185921448953
Ga112 ns112 0 ns111 0 0.0185921448953
Ca113 ns113 0 1e-12
Ca114 ns114 0 1e-12
Ra113 ns113 0 162588.989593
Ra114 ns114 0 162588.989593
Ga113 ns113 0 ns114 0 -0.0190176891717
Ga114 ns114 0 ns113 0 0.0190176891717
Ca115 ns115 0 1e-12
Ca116 ns116 0 1e-12
Ra115 ns115 0 47163.1705212
Ra116 ns116 0 47163.1705212
Ga115 ns115 0 ns116 0 -0.02064774136
Ga116 ns116 0 ns115 0 0.02064774136
Ca117 ns117 0 1e-12
Ca118 ns118 0 1e-12
Ra117 ns117 0 23862.0200529
Ra118 ns118 0 23862.0200529
Ga117 ns117 0 ns118 0 -0.0205607086816
Ga118 ns118 0 ns117 0 0.0205607086816
Ca119 ns119 0 1e-12
Ca120 ns120 0 1e-12
Ra119 ns119 0 202846.015445
Ra120 ns120 0 202846.015445
Ga119 ns119 0 ns120 0 -0.0197584554444
Ga120 ns120 0 ns119 0 0.0197584554444
Ca121 ns121 0 1e-12
Ca122 ns122 0 1e-12
Ra121 ns121 0 600245.979722
Ra122 ns122 0 600245.979722
Ga121 ns121 0 ns122 0 -0.0199293735672
Ga122 ns122 0 ns121 0 0.0199293735672
Ca123 ns123 0 1e-12
Ca124 ns124 0 1e-12
Ra123 ns123 0 447.943439376
Ra124 ns124 0 447.943439376
Ga123 ns123 0 ns124 0 -0.0436844805059
Ga124 ns124 0 ns123 0 0.0436844805059
Ca125 ns125 0 1e-12
Ca126 ns126 0 1e-12
Ra125 ns125 0 991.029910903
Ra126 ns126 0 991.029910903
Ga125 ns125 0 ns126 0 -0.0381640405909
Ga126 ns126 0 ns125 0 0.0381640405909
Ca127 ns127 0 1e-12
Ca128 ns128 0 1e-12
Ra127 ns127 0 211.891516399
Ra128 ns128 0 211.891516399
Ga127 ns127 0 ns128 0 -0.036245479294
Ga128 ns128 0 ns127 0 0.036245479294
Ca129 ns129 0 1e-12
Ca130 ns130 0 1e-12
Ra129 ns129 0 319.260702974
Ra130 ns130 0 319.260702974
Ga129 ns129 0 ns130 0 -0.0353068809401
Ga130 ns130 0 ns129 0 0.0353068809401
Ca131 ns131 0 1e-12
Ca132 ns132 0 1e-12
Ra131 ns131 0 69410.0026732
Ra132 ns132 0 69410.0026732
Ga131 ns131 0 ns132 0 -0.0333438219092
Ga132 ns132 0 ns131 0 0.0333438219092
Ca133 ns133 0 1e-12
Ca134 ns134 0 1e-12
Ra133 ns133 0 689119.465844
Ra134 ns134 0 689119.465844
Ga133 ns133 0 ns134 0 -0.0334513822385
Ga134 ns134 0 ns133 0 0.0334513822385
Ca135 ns135 0 1e-12
Ca136 ns136 0 1e-12
Ra135 ns135 0 224.042097996
Ra136 ns136 0 224.042097996
Ga135 ns135 0 ns136 0 -0.0297882417159
Ga136 ns136 0 ns135 0 0.0297882417159
Ca137 ns137 0 1e-12
Ca138 ns138 0 1e-12
Ra137 ns137 0 72395.8961036
Ra138 ns138 0 72395.8961036
Ga137 ns137 0 ns138 0 -0.0273797755403
Ga138 ns138 0 ns137 0 0.0273797755403
Ca139 ns139 0 1e-12
Ca140 ns140 0 1e-12
Ra139 ns139 0 111219.996546
Ra140 ns140 0 111219.996546
Ga139 ns139 0 ns140 0 -0.0272495535001
Ga140 ns140 0 ns139 0 0.0272495535001
Ca141 ns141 0 1e-12
Ca142 ns142 0 1e-12
Ra141 ns141 0 126.811970067
Ra142 ns142 0 126.811970067
Ga141 ns141 0 ns142 0 -0.0165253130509
Ga142 ns142 0 ns141 0 0.0165253130509
Ca143 ns143 0 1e-12
Ca144 ns144 0 1e-12
Ra143 ns143 0 354863.655844
Ra144 ns144 0 354863.655844
Ga143 ns143 0 ns144 0 -0.0258371472271
Ga144 ns144 0 ns143 0 0.0258371472271
Ca145 ns145 0 1e-12
Ca146 ns146 0 1e-12
Ra145 ns145 0 69711.9049242
Ra146 ns146 0 69711.9049242
Ga145 ns145 0 ns146 0 -0.0256157740412
Ga146 ns146 0 ns145 0 0.0256157740412
Ca147 ns147 0 1e-12
Ca148 ns148 0 1e-12
Ra147 ns147 0 336.938886434
Ra148 ns148 0 336.938886434
Ga147 ns147 0 ns148 0 -0.0223433412432
Ga148 ns148 0 ns147 0 0.0223433412432
Ca149 ns149 0 1e-12
Ca150 ns150 0 1e-12
Ra149 ns149 0 173.391279116
Ra150 ns150 0 173.391279116
Ga149 ns149 0 ns150 0 -0.00554355431024
Ga150 ns150 0 ns149 0 0.00554355431024
Ca151 ns151 0 1e-12
Ca152 ns152 0 1e-12
Ra151 ns151 0 632.032713312
Ra152 ns152 0 632.032713312
Ga151 ns151 0 ns152 0 -0.00285297778723
Ga152 ns152 0 ns151 0 0.00285297778723
Ca153 ns153 0 1e-12
Ra153 ns153 0 1197.47307208
Ca154 ns154 0 1e-12
Ca155 ns155 0 1e-12
Ra154 ns154 0 3375.04395023
Ra155 ns155 0 3375.04395023
Ga154 ns154 0 ns155 0 -0.000968208450647
Ga155 ns155 0 ns154 0 0.000968208450647
Ca156 ns156 0 1e-12
Ca157 ns157 0 1e-12
Ra156 ns156 0 4685.1080844
Ra157 ns157 0 4685.1080844
Ga156 ns156 0 ns157 0 -0.00190846745901
Ga157 ns157 0 ns156 0 0.00190846745901
Ca158 ns158 0 1e-12
Ca159 ns159 0 1e-12
Ra158 ns158 0 2105.33702721
Ra159 ns159 0 2105.33702721
Ga158 ns158 0 ns159 0 -0.00357730205463
Ga159 ns159 0 ns158 0 0.00357730205463
Ca160 ns160 0 1e-12
Ca161 ns161 0 1e-12
Ra160 ns160 0 20648.4987629
Ra161 ns161 0 20648.4987629
Ga160 ns160 0 ns161 0 -0.00328089862431
Ga161 ns161 0 ns160 0 0.00328089862431
Ca162 ns162 0 1e-12
Ca163 ns163 0 1e-12
Ra162 ns162 0 3279.93670726
Ra163 ns163 0 3279.93670726
Ga162 ns162 0 ns163 0 -0.011345665188
Ga163 ns163 0 ns162 0 0.011345665188
Ca164 ns164 0 1e-12
Ca165 ns165 0 1e-12
Ra164 ns164 0 104327.145309
Ra165 ns165 0 104327.145309
Ga164 ns164 0 ns165 0 -0.0121279515585
Ga165 ns165 0 ns164 0 0.0121279515585
Ca166 ns166 0 1e-12
Ca167 ns167 0 1e-12
Ra166 ns166 0 534076.127003
Ra167 ns167 0 534076.127003
Ga166 ns166 0 ns167 0 -0.0141122647658
Ga167 ns167 0 ns166 0 0.0141122647658
Ca168 ns168 0 1e-12
Ca169 ns169 0 1e-12
Ra168 ns168 0 6220.21127852
Ra169 ns169 0 6220.21127852
Ga168 ns168 0 ns169 0 -0.0234286671948
Ga169 ns169 0 ns168 0 0.0234286671948
Ca170 ns170 0 1e-12
Ca171 ns171 0 1e-12
Ra170 ns170 0 54061.1483374
Ra171 ns171 0 54061.1483374
Ga170 ns170 0 ns171 0 -0.0225427741196
Ga171 ns171 0 ns170 0 0.0225427741196
Ca172 ns172 0 1e-12
Ca173 ns173 0 1e-12
Ra172 ns172 0 22487.0464297
Ra173 ns173 0 22487.0464297
Ga172 ns172 0 ns173 0 -0.0185921448953
Ga173 ns173 0 ns172 0 0.0185921448953
Ca174 ns174 0 1e-12
Ca175 ns175 0 1e-12
Ra174 ns174 0 162588.989593
Ra175 ns175 0 162588.989593
Ga174 ns174 0 ns175 0 -0.0190176891717
Ga175 ns175 0 ns174 0 0.0190176891717
Ca176 ns176 0 1e-12
Ca177 ns177 0 1e-12
Ra176 ns176 0 47163.1705212
Ra177 ns177 0 47163.1705212
Ga176 ns176 0 ns177 0 -0.02064774136
Ga177 ns177 0 ns176 0 0.02064774136
Ca178 ns178 0 1e-12
Ca179 ns179 0 1e-12
Ra178 ns178 0 23862.0200529
Ra179 ns179 0 23862.0200529
Ga178 ns178 0 ns179 0 -0.0205607086816
Ga179 ns179 0 ns178 0 0.0205607086816
Ca180 ns180 0 1e-12
Ca181 ns181 0 1e-12
Ra180 ns180 0 202846.015445
Ra181 ns181 0 202846.015445
Ga180 ns180 0 ns181 0 -0.0197584554444
Ga181 ns181 0 ns180 0 0.0197584554444
Ca182 ns182 0 1e-12
Ca183 ns183 0 1e-12
Ra182 ns182 0 600245.979722
Ra183 ns183 0 600245.979722
Ga182 ns182 0 ns183 0 -0.0199293735672
Ga183 ns183 0 ns182 0 0.0199293735672

Gb1_1 ns1 0 ni1 0 -0.0189591536652
Gb2_1 ns2 0 ni1 0 0.0428296880827
Gb3_1 ns3 0 ni1 0 0.0373750412009
Gb4_1 ns4 0 ni1 0 0.0308503540419
Gb5_1 ns5 0 ni1 0 0.0363334347846
Gb6_1 ns6 0 ni1 0 0.00404388831348
Gb7_1 ns7 0 ni1 0 -0.0349988027727
Gb8_1 ns8 0 ni1 0 0.00660492421263
Gb9_1 ns9 0 ni1 0 0.0108212382579
Gb10_1 ns10 0 ni1 0 0.0333391525109
Gb11_1 ns11 0 ni1 0 0.0334510669192
Gb12_1 ns12 0 ni1 0 -0.00727018922342
Gb13_1 ns13 0 ni1 0 -0.0277440455242
Gb14_1 ns14 0 ni1 0 0.0181060446397
Gb15_1 ns15 0 ni1 0 -0.000395491076875
Gb16_1 ns16 0 ni1 0 0.0273795829859
Gb17_1 ns17 0 ni1 0 0.00416220106452
Gb18_1 ns18 0 ni1 0 0.0272481831182
Gb19_1 ns19 0 ni1 0 -0.0146396854598
Gb20_1 ns20 0 ni1 0 0.0118372262425
Gb21_1 ns21 0 ni1 0 0.0100645117195
Gb22_1 ns22 0 ni1 0 -0.025836049827
Gb23_1 ns23 0 ni1 0 -0.0256076573001
Gb24_1 ns24 0 ni1 0 -0.0145086074522
Gb25_1 ns25 0 ni1 0 0.00420709271534
Gb26_1 ns26 0 ni1 0 0.0221787371786
Gb27_1 ns27 0 ni1 0 0.00327777318296
Gb28_1 ns28 0 ni1 0 -0.0079451805658
Gb29_1 ns29 0 ni1 0 0.00342555473105
Gb30_1 ns30 0 ni1 0 -0.000549739986225
Gb31_1 ns31 0 ni1 0 0.000835091847418
Gb32_1 ns32 0 ni1 0 -0.000845631439442
Gb33_1 ns33 0 ni1 0 -0.000696842985005
Gb34_1 ns34 0 ni1 0 0.00191746133661
Gb35_1 ns35 0 ni1 0 0.000133024603495
Gb36_1 ns36 0 ni1 0 -0.00325558864404
Gb37_1 ns37 0 ni1 0 0.00289794423109
Gb38_1 ns38 0 ni1 0 0.00326764822121
Gb39_1 ns39 0 ni1 0 -0.0009460865926
Gb40_1 ns40 0 ni1 0 -0.0100629443471
Gb41_1 ns41 0 ni1 0 0.0110834438216
Gb42_1 ns42 0 ni1 0 -0.005257105911
Gb43_1 ns43 0 ni1 0 -0.012123804221
Gb44_1 ns44 0 ni1 0 0.00616770523579
Gb45_1 ns45 0 ni1 0 0.0141114466931
Gb46_1 ns46 0 ni1 0 -0.0234215859558
Gb47_1 ns47 0 ni1 0 -0.00119272413104
Gb48_1 ns48 0 ni1 0 0.0225367643509
Gb49_1 ns49 0 ni1 0 -0.00734253212315
Gb50_1 ns50 0 ni1 0 0.0185836415706
Gb51_1 ns51 0 ni1 0 -0.00359956064193
Gb52_1 ns52 0 ni1 0 0.0190134665211
Gb53_1 ns53 0 ni1 0 -0.0130628685728
Gb54_1 ns54 0 ni1 0 -0.0206387380364
Gb55_1 ns55 0 ni1 0 0.00878875603266
Gb56_1 ns56 0 ni1 0 -2.45517278916e-05
Gb57_1 ns57 0 ni1 0 -0.020560744057
Gb58_1 ns58 0 ni1 0 0.0197580489161
Gb59_1 ns59 0 ni1 0 -0.00163426427339
Gb60_1 ns60 0 ni1 0 -0.0157863692721
Gb61_1 ns61 0 ni1 0 0.0199280540547
Gb62_2 ns62 0 ni2 0 -0.0189591536652
Gb63_2 ns63 0 ni2 0 0.0428296880827
Gb64_2 ns64 0 ni2 0 0.0373750412009
Gb65_2 ns65 0 ni2 0 0.0308503540419
Gb66_2 ns66 0 ni2 0 0.0363334347846
Gb67_2 ns67 0 ni2 0 0.00404388831348
Gb68_2 ns68 0 ni2 0 -0.0349988027727
Gb69_2 ns69 0 ni2 0 0.00660492421263
Gb70_2 ns70 0 ni2 0 0.0108212382579
Gb71_2 ns71 0 ni2 0 0.0333391525109
Gb72_2 ns72 0 ni2 0 0.0334510669192
Gb73_2 ns73 0 ni2 0 -0.00727018922342
Gb74_2 ns74 0 ni2 0 -0.0277440455242
Gb75_2 ns75 0 ni2 0 0.0181060446397
Gb76_2 ns76 0 ni2 0 -0.000395491076875
Gb77_2 ns77 0 ni2 0 0.0273795829859
Gb78_2 ns78 0 ni2 0 0.00416220106452
Gb79_2 ns79 0 ni2 0 0.0272481831182
Gb80_2 ns80 0 ni2 0 -0.0146396854598
Gb81_2 ns81 0 ni2 0 0.0118372262425
Gb82_2 ns82 0 ni2 0 0.0100645117195
Gb83_2 ns83 0 ni2 0 -0.025836049827
Gb84_2 ns84 0 ni2 0 -0.0256076573001
Gb85_2 ns85 0 ni2 0 -0.0145086074522
Gb86_2 ns86 0 ni2 0 0.00420709271534
Gb87_2 ns87 0 ni2 0 0.0221787371786
Gb88_2 ns88 0 ni2 0 0.00327777318296
Gb89_2 ns89 0 ni2 0 -0.0079451805658
Gb90_2 ns90 0 ni2 0 0.00342555473105
Gb91_2 ns91 0 ni2 0 -0.000549739986225
Gb92_2 ns92 0 ni2 0 0.000835091847418
Gb93_2 ns93 0 ni2 0 -0.000845631439442
Gb94_2 ns94 0 ni2 0 -0.000696842985005
Gb95_2 ns95 0 ni2 0 0.00191746133661
Gb96_2 ns96 0 ni2 0 0.000133024603495
Gb97_2 ns97 0 ni2 0 -0.00325558864404
Gb98_2 ns98 0 ni2 0 0.00289794423109
Gb99_2 ns99 0 ni2 0 0.00326764822121
Gb100_2 ns100 0 ni2 0 -0.0009460865926
Gb101_2 ns101 0 ni2 0 -0.0100629443471
Gb102_2 ns102 0 ni2 0 0.0110834438216
Gb103_2 ns103 0 ni2 0 -0.005257105911
Gb104_2 ns104 0 ni2 0 -0.012123804221
Gb105_2 ns105 0 ni2 0 0.00616770523579
Gb106_2 ns106 0 ni2 0 0.0141114466931
Gb107_2 ns107 0 ni2 0 -0.0234215859558
Gb108_2 ns108 0 ni2 0 -0.00119272413104
Gb109_2 ns109 0 ni2 0 0.0225367643509
Gb110_2 ns110 0 ni2 0 -0.00734253212315
Gb111_2 ns111 0 ni2 0 0.0185836415706
Gb112_2 ns112 0 ni2 0 -0.00359956064193
Gb113_2 ns113 0 ni2 0 0.0190134665211
Gb114_2 ns114 0 ni2 0 -0.0130628685728
Gb115_2 ns115 0 ni2 0 -0.0206387380364
Gb116_2 ns116 0 ni2 0 0.00878875603266
Gb117_2 ns117 0 ni2 0 -2.45517278916e-05
Gb118_2 ns118 0 ni2 0 -0.020560744057
Gb119_2 ns119 0 ni2 0 0.0197580489161
Gb120_2 ns120 0 ni2 0 -0.00163426427339
Gb121_2 ns121 0 ni2 0 -0.0157863692721
Gb122_2 ns122 0 ni2 0 0.0199280540547
Gb123_3 ns123 0 ni3 0 -0.0189591536652
Gb124_3 ns124 0 ni3 0 0.0428296880827
Gb125_3 ns125 0 ni3 0 0.0373750412009
Gb126_3 ns126 0 ni3 0 0.0308503540419
Gb127_3 ns127 0 ni3 0 0.0363334347846
Gb128_3 ns128 0 ni3 0 0.00404388831348
Gb129_3 ns129 0 ni3 0 -0.0349988027727
Gb130_3 ns130 0 ni3 0 0.00660492421263
Gb131_3 ns131 0 ni3 0 0.0108212382579
Gb132_3 ns132 0 ni3 0 0.0333391525109
Gb133_3 ns133 0 ni3 0 0.0334510669192
Gb134_3 ns134 0 ni3 0 -0.00727018922342
Gb135_3 ns135 0 ni3 0 -0.0277440455242
Gb136_3 ns136 0 ni3 0 0.0181060446397
Gb137_3 ns137 0 ni3 0 -0.000395491076875
Gb138_3 ns138 0 ni3 0 0.0273795829859
Gb139_3 ns139 0 ni3 0 0.00416220106452
Gb140_3 ns140 0 ni3 0 0.0272481831182
Gb141_3 ns141 0 ni3 0 -0.0146396854598
Gb142_3 ns142 0 ni3 0 0.0118372262425
Gb143_3 ns143 0 ni3 0 0.0100645117195
Gb144_3 ns144 0 ni3 0 -0.025836049827
Gb145_3 ns145 0 ni3 0 -0.0256076573001
Gb146_3 ns146 0 ni3 0 -0.0145086074522
Gb147_3 ns147 0 ni3 0 0.00420709271534
Gb148_3 ns148 0 ni3 0 0.0221787371786
Gb149_3 ns149 0 ni3 0 0.00327777318296
Gb150_3 ns150 0 ni3 0 -0.0079451805658
Gb151_3 ns151 0 ni3 0 0.00342555473105
Gb152_3 ns152 0 ni3 0 -0.000549739986225
Gb153_3 ns153 0 ni3 0 0.000835091847418
Gb154_3 ns154 0 ni3 0 -0.000845631439442
Gb155_3 ns155 0 ni3 0 -0.000696842985005
Gb156_3 ns156 0 ni3 0 0.00191746133661
Gb157_3 ns157 0 ni3 0 0.000133024603495
Gb158_3 ns158 0 ni3 0 -0.00325558864404
Gb159_3 ns159 0 ni3 0 0.00289794423109
Gb160_3 ns160 0 ni3 0 0.00326764822121
Gb161_3 ns161 0 ni3 0 -0.0009460865926
Gb162_3 ns162 0 ni3 0 -0.0100629443471
Gb163_3 ns163 0 ni3 0 0.0110834438216
Gb164_3 ns164 0 ni3 0 -0.005257105911
Gb165_3 ns165 0 ni3 0 -0.012123804221
Gb166_3 ns166 0 ni3 0 0.00616770523579
Gb167_3 ns167 0 ni3 0 0.0141114466931
Gb168_3 ns168 0 ni3 0 -0.0234215859558
Gb169_3 ns169 0 ni3 0 -0.00119272413104
Gb170_3 ns170 0 ni3 0 0.0225367643509
Gb171_3 ns171 0 ni3 0 -0.00734253212315
Gb172_3 ns172 0 ni3 0 0.0185836415706
Gb173_3 ns173 0 ni3 0 -0.00359956064193
Gb174_3 ns174 0 ni3 0 0.0190134665211
Gb175_3 ns175 0 ni3 0 -0.0130628685728
Gb176_3 ns176 0 ni3 0 -0.0206387380364
Gb177_3 ns177 0 ni3 0 0.00878875603266
Gb178_3 ns178 0 ni3 0 -2.45517278916e-05
Gb179_3 ns179 0 ni3 0 -0.020560744057
Gb180_3 ns180 0 ni3 0 0.0197580489161
Gb181_3 ns181 0 ni3 0 -0.00163426427339
Gb182_3 ns182 0 ni3 0 -0.0157863692721
Gb183_3 ns183 0 ni3 0 0.0199280540547

Gc1_1 0 n2 ns1 0 5.15181719933e-05
Gc1_2 0 n2 ns2 0 5.8042646543e-06
Gc1_3 0 n2 ns3 0 -6.58368018035e-06
Gc1_4 0 n2 ns4 0 0.000109819955575
Gc1_5 0 n2 ns5 0 -0.0036183887401
Gc1_6 0 n2 ns6 0 -0.00327000713173
Gc1_7 0 n2 ns7 0 0.00112296775308
Gc1_8 0 n2 ns8 0 -0.00489766478152
Gc1_9 0 n2 ns9 0 -3.0460389983e-07
Gc1_10 0 n2 ns10 0 -3.98582652933e-07
Gc1_11 0 n2 ns11 0 -2.25135085157e-08
Gc1_12 0 n2 ns12 0 3.41018785777e-08
Gc1_13 0 n2 ns13 0 -0.00811915098541
Gc1_14 0 n2 ns14 0 0.0044383267066
Gc1_15 0 n2 ns15 0 -2.14434574929e-07
Gc1_16 0 n2 ns16 0 3.05549943306e-07
Gc1_17 0 n2 ns17 0 4.51977806152e-08
Gc1_18 0 n2 ns18 0 2.32483292653e-07
Gc1_19 0 n2 ns19 0 0.0139042380943
Gc1_20 0 n2 ns20 0 -0.01123559155
Gc1_21 0 n2 ns21 0 6.33898791913e-08
Gc1_22 0 n2 ns22 0 1.04309112857e-07
Gc1_23 0 n2 ns23 0 4.05973338553e-07
Gc1_24 0 n2 ns24 0 -4.09384290488e-08
Gc1_25 0 n2 ns25 0 0.00701817304062
Gc1_26 0 n2 ns26 0 -0.00126293872453
Gc1_27 0 n2 ns27 0 0.0161229798475
Gc1_28 0 n2 ns28 0 0.00808096118453
Gc1_29 0 n2 ns29 0 0.0214591235071
Gc1_30 0 n2 ns30 0 0.00722798000378
Gc1_31 0 n2 ns31 0 -0.00506105799072
Gc1_32 0 n2 ns32 0 0.000921316039916
Gc1_33 0 n2 ns33 0 -0.000432930723483
Gc1_34 0 n2 ns34 0 0.00012619885406
Gc1_35 0 n2 ns35 0 0.000291140759662
Gc1_36 0 n2 ns36 0 0.000240550087974
Gc1_37 0 n2 ns37 0 -0.000542193146354
Gc1_38 0 n2 ns38 0 8.12030857622e-06
Gc1_39 0 n2 ns39 0 3.06421810482e-05
Gc1_40 0 n2 ns40 0 3.18156967852e-06
Gc1_41 0 n2 ns41 0 8.67206048926e-06
Gc1_42 0 n2 ns42 0 -5.14796537592e-08
Gc1_43 0 n2 ns43 0 7.95837414851e-08
Gc1_44 0 n2 ns44 0 1.34746459181e-08
Gc1_45 0 n2 ns45 0 -8.49980095896e-09
Gc1_46 0 n2 ns46 0 -9.96181022046e-06
Gc1_47 0 n2 ns47 0 1.12200087798e-07
Gc1_48 0 n2 ns48 0 -1.40508091353e-07
Gc1_49 0 n2 ns49 0 7.67663227475e-08
Gc1_50 0 n2 ns50 0 -5.65843281746e-07
Gc1_51 0 n2 ns51 0 -2.43056006566e-07
Gc1_52 0 n2 ns52 0 -1.09134135064e-08
Gc1_53 0 n2 ns53 0 -3.29001164913e-08
Gc1_54 0 n2 ns54 0 1.21400941862e-07
Gc1_55 0 n2 ns55 0 -1.02018733462e-07
Gc1_56 0 n2 ns56 0 8.48869265201e-07
Gc1_57 0 n2 ns57 0 1.13461140524e-07
Gc1_58 0 n2 ns58 0 1.40718296364e-07
Gc1_59 0 n2 ns59 0 1.14432943347e-07
Gc1_60 0 n2 ns60 0 -4.67660989469e-08
Gc1_61 0 n2 ns61 0 6.64810637927e-09
Gc1_62 0 n2 ns62 0 4.97280367138e-06
Gc1_63 0 n2 ns63 0 1.38075858558e-05
Gc1_64 0 n2 ns64 0 -9.69068841273e-06
Gc1_65 0 n2 ns65 0 2.12075367248e-05
Gc1_66 0 n2 ns66 0 -0.00114089073044
Gc1_67 0 n2 ns67 0 0.000648896279614
Gc1_68 0 n2 ns68 0 -4.17476624022e-05
Gc1_69 0 n2 ns69 0 0.000758224204798
Gc1_70 0 n2 ns70 0 2.17305052487e-07
Gc1_71 0 n2 ns71 0 2.13751793292e-07
Gc1_72 0 n2 ns72 0 1.80720329949e-08
Gc1_73 0 n2 ns73 0 -6.4360047339e-09
Gc1_74 0 n2 ns74 0 -0.00233707912227
Gc1_75 0 n2 ns75 0 -0.00286282129319
Gc1_76 0 n2 ns76 0 -4.10687671908e-07
Gc1_77 0 n2 ns77 0 1.537523285e-07
Gc1_78 0 n2 ns78 0 -1.59338726803e-07
Gc1_79 0 n2 ns79 0 1.20197457238e-07
Gc1_80 0 n2 ns80 0 0.00865127147724
Gc1_81 0 n2 ns81 0 -0.00296965421391
Gc1_82 0 n2 ns82 0 -1.31645047034e-09
Gc1_83 0 n2 ns83 0 9.14881791082e-08
Gc1_84 0 n2 ns84 0 4.03483544129e-07
Gc1_85 0 n2 ns85 0 2.89924412935e-07
Gc1_86 0 n2 ns86 0 0.000389199330263
Gc1_87 0 n2 ns87 0 0.00242657056567
Gc1_88 0 n2 ns88 0 0.0093051892449
Gc1_89 0 n2 ns89 0 -0.0189829984747
Gc1_90 0 n2 ns90 0 -0.00264408452055
Gc1_91 0 n2 ns91 0 0.00945074231261
Gc1_92 0 n2 ns92 0 -0.000480551792075
Gc1_93 0 n2 ns93 0 -4.76971616121e-05
Gc1_94 0 n2 ns94 0 0.000130037155212
Gc1_95 0 n2 ns95 0 -5.57587204366e-05
Gc1_96 0 n2 ns96 0 -0.000167942442071
Gc1_97 0 n2 ns97 0 0.000364503913655
Gc1_98 0 n2 ns98 0 2.46226962255e-05
Gc1_99 0 n2 ns99 0 -1.08851122356e-05
Gc1_100 0 n2 ns100 0 8.69912608234e-06
Gc1_101 0 n2 ns101 0 5.26167569439e-06
Gc1_102 0 n2 ns102 0 1.67138604496e-05
Gc1_103 0 n2 ns103 0 -2.3287368408e-07
Gc1_104 0 n2 ns104 0 -1.44135439453e-07
Gc1_105 0 n2 ns105 0 9.89127998102e-08
Gc1_106 0 n2 ns106 0 -3.83410479857e-08
Gc1_107 0 n2 ns107 0 -1.03657722745e-06
Gc1_108 0 n2 ns108 0 -1.87086055026e-06
Gc1_109 0 n2 ns109 0 -2.97187786151e-08
Gc1_110 0 n2 ns110 0 -4.9109647685e-07
Gc1_111 0 n2 ns111 0 -1.11429537345e-06
Gc1_112 0 n2 ns112 0 -4.96643516602e-07
Gc1_113 0 n2 ns113 0 -7.01387466847e-08
Gc1_114 0 n2 ns114 0 1.40916652778e-07
Gc1_115 0 n2 ns115 0 5.59090614834e-07
Gc1_116 0 n2 ns116 0 -7.09537370528e-07
Gc1_117 0 n2 ns117 0 1.59140064368e-06
Gc1_118 0 n2 ns118 0 2.94466775952e-07
Gc1_119 0 n2 ns119 0 -9.53022790955e-08
Gc1_120 0 n2 ns120 0 1.42140283763e-07
Gc1_121 0 n2 ns121 0 -4.27434744084e-08
Gc1_122 0 n2 ns122 0 -3.77877060283e-08
Gc1_123 0 n2 ns123 0 1.27396548818e-05
Gc1_124 0 n2 ns124 0 -7.00428149805e-05
Gc1_125 0 n2 ns125 0 2.31469555764e-05
Gc1_126 0 n2 ns126 0 -4.64086886003e-05
Gc1_127 0 n2 ns127 0 -0.00265562423315
Gc1_128 0 n2 ns128 0 0.000398636923128
Gc1_129 0 n2 ns129 0 -0.00341052010389
Gc1_130 0 n2 ns130 0 0.000932054584144
Gc1_131 0 n2 ns131 0 -4.68085778175e-08
Gc1_132 0 n2 ns132 0 1.6557084323e-07
Gc1_133 0 n2 ns133 0 1.58581543318e-08
Gc1_134 0 n2 ns134 0 -3.68084158173e-09
Gc1_135 0 n2 ns135 0 0.00175781019319
Gc1_136 0 n2 ns136 0 0.00400588996646
Gc1_137 0 n2 ns137 0 1.80349086398e-07
Gc1_138 0 n2 ns138 0 1.00273656564e-07
Gc1_139 0 n2 ns139 0 8.57089921749e-08
Gc1_140 0 n2 ns140 0 -8.65745830123e-10
Gc1_141 0 n2 ns141 0 -0.00670662042509
Gc1_142 0 n2 ns142 0 0.00217663000548
Gc1_143 0 n2 ns143 0 3.12446532532e-08
Gc1_144 0 n2 ns144 0 -1.25711068364e-08
Gc1_145 0 n2 ns145 0 -3.9057760702e-09
Gc1_146 0 n2 ns146 0 -1.34509808019e-07
Gc1_147 0 n2 ns147 0 0.00301620444643
Gc1_148 0 n2 ns148 0 -0.00363629165991
Gc1_149 0 n2 ns149 0 -0.0107660771029
Gc1_150 0 n2 ns150 0 0.0199457739414
Gc1_151 0 n2 ns151 0 0.00188829986241
Gc1_152 0 n2 ns152 0 -0.0098400766439
Gc1_153 0 n2 ns153 0 -0.000124124748247
Gc1_154 0 n2 ns154 0 0.00016241111137
Gc1_155 0 n2 ns155 0 -0.000184245133344
Gc1_156 0 n2 ns156 0 9.47235262715e-05
Gc1_157 0 n2 ns157 0 0.000168741389806
Gc1_158 0 n2 ns158 0 -0.000177793634903
Gc1_159 0 n2 ns159 0 -3.21241789364e-06
Gc1_160 0 n2 ns160 0 5.91559563157e-06
Gc1_161 0 n2 ns161 0 -4.52800317911e-06
Gc1_162 0 n2 ns162 0 -1.47440664899e-05
Gc1_163 0 n2 ns163 0 -1.11646371622e-05
Gc1_164 0 n2 ns164 0 4.53175088888e-07
Gc1_165 0 n2 ns165 0 -8.83742682835e-08
Gc1_166 0 n2 ns166 0 2.38278660133e-08
Gc1_167 0 n2 ns167 0 1.0255970818e-07
Gc1_168 0 n2 ns168 0 -2.42986029053e-06
Gc1_169 0 n2 ns169 0 1.1994898111e-06
Gc1_170 0 n2 ns170 0 -1.61972554808e-07
Gc1_171 0 n2 ns171 0 2.56610175719e-07
Gc1_172 0 n2 ns172 0 5.77814874552e-07
Gc1_173 0 n2 ns173 0 1.04740734296e-06
Gc1_174 0 n2 ns174 0 1.25194933438e-07
Gc1_175 0 n2 ns175 0 3.47693907944e-08
Gc1_176 0 n2 ns176 0 -8.16588586018e-07
Gc1_177 0 n2 ns177 0 5.6278108452e-07