**************************************************
* Manufacturer:           Würth Elektronik
* Kinds:                  Transformer for Battery Management Systems
* Matchcode:              WE-BMS
* Library Type:           LTspice
* Version:                rev23a
* Created/modified by:    Ella      
* Date and Time:          2023-04-04
* Team:                   eiSos EDA Service  
* Contact:                libraries@we-online.com
**************************************************
* Copyright(C) 2022 Würth Elektronik eiSos GmbH & Co. KG
* All Rights Reserved.
**************************************************
* Disclaimer: While Würth Elektronik eiSos has made every reasonable effort to ensure the accuracy
* of the simulation models provided, Würth Elektronik eiSos does not guarantee the exemption of error on
* the simulation models, nor does Würth Elektronik eiSos guarantee that the simulation model is current.
* Würth Elektronik eiSos reserves the right to make any adjustments at any time without notice.
* Würth Elektronik eiSos expressly disclaims all implied warranties regarding this simulation model.
**************************************************
***********************************************************************************
********************************74941300*****************************************
***********************************************************************************
.subckt 74941300 1 2 3 4 5 6
Vam1 1 n2 dc 0
Rport1 n2 0 50
Vam2 2 n4 dc 0
Rport2 n4 0 50
Vam3 3 n6 dc 0
Rport3 n6 0 50
Vam4 4 n8 dc 0
Rport4 n8 0 50
Vam5 5 n10 dc 0
Rport5 n10 0 50
Vam6 6 n12 dc 0
Rport6 n12 0 50

Fi1 0 ni1 Vam1 50
Gi1 0 ni1 1 0 1
Rt1 ni1 0 1
Fi2 0 ni2 Vam2 50
Gi2 0 ni2 2 0 1
Rt2 ni2 0 1
Fi3 0 ni3 Vam3 50
Gi3 0 ni3 3 0 1
Rt3 ni3 0 1
Fi4 0 ni4 Vam4 50
Gi4 0 ni4 4 0 1
Rt4 ni4 0 1
Fi5 0 ni5 Vam5 50
Gi5 0 ni5 5 0 1
Rt5 ni5 0 1
Fi6 0 ni6 Vam6 50
Gi6 0 ni6 6 0 1
Rt6 ni6 0 1

Ca1 ns1 0 1e-12
Ra1 ns1 0 45.1788782174
Ca2 ns2 0 1e-12
Ra2 ns2 0 103.213573083
Ca3 ns3 0 1e-12
Ca4 ns4 0 1e-12
Ra3 ns3 0 920.546820472
Ra4 ns4 0 920.546820472
Ga3 ns3 0 ns4 0 -0.00730944157934
Ga4 ns4 0 ns3 0 0.00730944157934
Ca5 ns5 0 1e-12
Ca6 ns6 0 1e-12
Ra5 ns5 0 1331.73311779
Ra6 ns6 0 1331.73311779
Ga5 ns5 0 ns6 0 -0.00651257946538
Ga6 ns6 0 ns5 0 0.00651257946538
Ca7 ns7 0 1e-12
Ca8 ns8 0 1e-12
Ra7 ns7 0 814.448879014
Ra8 ns8 0 814.448879014
Ga7 ns7 0 ns8 0 -0.0061526750092
Ga8 ns8 0 ns7 0 0.0061526750092
Ca9 ns9 0 1e-12
Ca10 ns10 0 1e-12
Ra9 ns9 0 738.937726632
Ra10 ns10 0 738.937726632
Ga9 ns9 0 ns10 0 -0.00449436299811
Ga10 ns10 0 ns9 0 0.00449436299811
Ca11 ns11 0 1e-12
Ca12 ns12 0 1e-12
Ra11 ns11 0 552.776620921
Ra12 ns12 0 552.776620921
Ga11 ns11 0 ns12 0 -0.00293280136661
Ga12 ns12 0 ns11 0 0.00293280136661
Ca13 ns13 0 1e-12
Ca14 ns14 0 1e-12
Ra13 ns13 0 853.368212251
Ra14 ns14 0 853.368212251
Ga13 ns13 0 ns14 0 -0.00260468136653
Ga14 ns14 0 ns13 0 0.00260468136653
Ca15 ns15 0 1e-12
Ra15 ns15 0 401.146088017
Ca16 ns16 0 1e-12
Ra16 ns16 0 1130.57397488
Ca17 ns17 0 1e-12
Ca18 ns18 0 1e-12
Ra17 ns17 0 9448.03846463
Ra18 ns18 0 9448.03846463
Ga17 ns17 0 ns18 0 -0.000859357220223
Ga18 ns18 0 ns17 0 0.000859357220223
Ca19 ns19 0 1e-12
Ca20 ns20 0 1e-12
Ra19 ns19 0 5393.96603901
Ra20 ns20 0 5393.96603901
Ga19 ns19 0 ns20 0 -0.000513810701581
Ga20 ns20 0 ns19 0 0.000513810701581
Ca21 ns21 0 1e-12
Ca22 ns22 0 1e-12
Ra21 ns21 0 155668.408304
Ra22 ns22 0 155668.408304
Ga21 ns21 0 ns22 0 -0.000296848463726
Ga22 ns22 0 ns21 0 0.000296848463726
Ca23 ns23 0 1e-12
Ra23 ns23 0 15779.1604208
Ca24 ns24 0 1e-12
Ca25 ns25 0 1e-12
Ra24 ns24 0 32883474.1271
Ra25 ns25 0 32883474.1271
Ga24 ns24 0 ns25 0 -3.16256979093e-05
Ga25 ns25 0 ns24 0 3.16256979093e-05
Ca26 ns26 0 1e-12
Ra26 ns26 0 69724.8262339
Ca27 ns27 0 1e-12
Ra27 ns27 0 318631.289568
Ca28 ns28 0 1e-12
Ra28 ns28 0 523373.110634
Ca29 ns29 0 1e-12
Ra29 ns29 0 668327.014776
Ca30 ns30 0 1e-12
Ra30 ns30 0 1942947.76541
Ca31 ns31 0 1e-12
Ra31 ns31 0 6618891.27384
Ca32 ns32 0 1e-12
Ca33 ns33 0 1e-12
Ra32 ns32 0 19641700.5476
Ra33 ns33 0 19641700.5476
Ga32 ns32 0 ns33 0 -2.2454397919e-09
Ga33 ns33 0 ns32 0 2.2454397919e-09
Ca34 ns34 0 1e-12
Ra34 ns34 0 38789596.6459
Ca35 ns35 0 1e-12
Ca36 ns36 0 1e-12
Ra35 ns35 0 823855000.612
Ra36 ns36 0 823855000.612
Ga35 ns35 0 ns36 0 -6.01699940394e-08
Ga36 ns36 0 ns35 0 6.01699940394e-08
Ca37 ns37 0 1e-12
Ra37 ns37 0 45.1788782174
Ca38 ns38 0 1e-12
Ra38 ns38 0 103.213573083
Ca39 ns39 0 1e-12
Ca40 ns40 0 1e-12
Ra39 ns39 0 920.546820472
Ra40 ns40 0 920.546820472
Ga39 ns39 0 ns40 0 -0.00730944157934
Ga40 ns40 0 ns39 0 0.00730944157934
Ca41 ns41 0 1e-12
Ca42 ns42 0 1e-12
Ra41 ns41 0 1331.73311779
Ra42 ns42 0 1331.73311779
Ga41 ns41 0 ns42 0 -0.00651257946538
Ga42 ns42 0 ns41 0 0.00651257946538
Ca43 ns43 0 1e-12
Ca44 ns44 0 1e-12
Ra43 ns43 0 814.448879014
Ra44 ns44 0 814.448879014
Ga43 ns43 0 ns44 0 -0.0061526750092
Ga44 ns44 0 ns43 0 0.0061526750092
Ca45 ns45 0 1e-12
Ca46 ns46 0 1e-12
Ra45 ns45 0 738.937726632
Ra46 ns46 0 738.937726632
Ga45 ns45 0 ns46 0 -0.00449436299811
Ga46 ns46 0 ns45 0 0.00449436299811
Ca47 ns47 0 1e-12
Ca48 ns48 0 1e-12
Ra47 ns47 0 552.776620921
Ra48 ns48 0 552.776620921
Ga47 ns47 0 ns48 0 -0.00293280136661
Ga48 ns48 0 ns47 0 0.00293280136661
Ca49 ns49 0 1e-12
Ca50 ns50 0 1e-12
Ra49 ns49 0 853.368212251
Ra50 ns50 0 853.368212251
Ga49 ns49 0 ns50 0 -0.00260468136653
Ga50 ns50 0 ns49 0 0.00260468136653
Ca51 ns51 0 1e-12
Ra51 ns51 0 401.146088017
Ca52 ns52 0 1e-12
Ra52 ns52 0 1130.57397488
Ca53 ns53 0 1e-12
Ca54 ns54 0 1e-12
Ra53 ns53 0 9448.03846463
Ra54 ns54 0 9448.03846463
Ga53 ns53 0 ns54 0 -0.000859357220223
Ga54 ns54 0 ns53 0 0.000859357220223
Ca55 ns55 0 1e-12
Ca56 ns56 0 1e-12
Ra55 ns55 0 5393.96603901
Ra56 ns56 0 5393.96603901
Ga55 ns55 0 ns56 0 -0.000513810701581
Ga56 ns56 0 ns55 0 0.000513810701581
Ca57 ns57 0 1e-12
Ca58 ns58 0 1e-12
Ra57 ns57 0 155668.408304
Ra58 ns58 0 155668.408304
Ga57 ns57 0 ns58 0 -0.000296848463726
Ga58 ns58 0 ns57 0 0.000296848463726
Ca59 ns59 0 1e-12
Ra59 ns59 0 15779.1604208
Ca60 ns60 0 1e-12
Ca61 ns61 0 1e-12
Ra60 ns60 0 32883474.1271
Ra61 ns61 0 32883474.1271
Ga60 ns60 0 ns61 0 -3.16256979093e-05
Ga61 ns61 0 ns60 0 3.16256979093e-05
Ca62 ns62 0 1e-12
Ra62 ns62 0 69724.8262339
Ca63 ns63 0 1e-12
Ra63 ns63 0 318631.289568
Ca64 ns64 0 1e-12
Ra64 ns64 0 523373.110634
Ca65 ns65 0 1e-12
Ra65 ns65 0 668327.014776
Ca66 ns66 0 1e-12
Ra66 ns66 0 1942947.76541
Ca67 ns67 0 1e-12
Ra67 ns67 0 6618891.27384
Ca68 ns68 0 1e-12
Ca69 ns69 0 1e-12
Ra68 ns68 0 19641700.5476
Ra69 ns69 0 19641700.5476
Ga68 ns68 0 ns69 0 -2.2454397919e-09
Ga69 ns69 0 ns68 0 2.2454397919e-09
Ca70 ns70 0 1e-12
Ra70 ns70 0 38789596.6459
Ca71 ns71 0 1e-12
Ca72 ns72 0 1e-12
Ra71 ns71 0 823855000.612
Ra72 ns72 0 823855000.612
Ga71 ns71 0 ns72 0 -6.01699940394e-08
Ga72 ns72 0 ns71 0 6.01699940394e-08
Ca73 ns73 0 1e-12
Ra73 ns73 0 45.1788782174
Ca74 ns74 0 1e-12
Ra74 ns74 0 103.213573083
Ca75 ns75 0 1e-12
Ca76 ns76 0 1e-12
Ra75 ns75 0 920.546820472
Ra76 ns76 0 920.546820472
Ga75 ns75 0 ns76 0 -0.00730944157934
Ga76 ns76 0 ns75 0 0.00730944157934
Ca77 ns77 0 1e-12
Ca78 ns78 0 1e-12
Ra77 ns77 0 1331.73311779
Ra78 ns78 0 1331.73311779
Ga77 ns77 0 ns78 0 -0.00651257946538
Ga78 ns78 0 ns77 0 0.00651257946538
Ca79 ns79 0 1e-12
Ca80 ns80 0 1e-12
Ra79 ns79 0 814.448879014
Ra80 ns80 0 814.448879014
Ga79 ns79 0 ns80 0 -0.0061526750092
Ga80 ns80 0 ns79 0 0.0061526750092
Ca81 ns81 0 1e-12
Ca82 ns82 0 1e-12
Ra81 ns81 0 738.937726632
Ra82 ns82 0 738.937726632
Ga81 ns81 0 ns82 0 -0.00449436299811
Ga82 ns82 0 ns81 0 0.00449436299811
Ca83 ns83 0 1e-12
Ca84 ns84 0 1e-12
Ra83 ns83 0 552.776620921
Ra84 ns84 0 552.776620921
Ga83 ns83 0 ns84 0 -0.00293280136661
Ga84 ns84 0 ns83 0 0.00293280136661
Ca85 ns85 0 1e-12
Ca86 ns86 0 1e-12
Ra85 ns85 0 853.368212251
Ra86 ns86 0 853.368212251
Ga85 ns85 0 ns86 0 -0.00260468136653
Ga86 ns86 0 ns85 0 0.00260468136653
Ca87 ns87 0 1e-12
Ra87 ns87 0 401.146088017
Ca88 ns88 0 1e-12
Ra88 ns88 0 1130.57397488
Ca89 ns89 0 1e-12
Ca90 ns90 0 1e-12
Ra89 ns89 0 9448.03846463
Ra90 ns90 0 9448.03846463
Ga89 ns89 0 ns90 0 -0.000859357220223
Ga90 ns90 0 ns89 0 0.000859357220223
Ca91 ns91 0 1e-12
Ca92 ns92 0 1e-12
Ra91 ns91 0 5393.96603901
Ra92 ns92 0 5393.96603901
Ga91 ns91 0 ns92 0 -0.000513810701581
Ga92 ns92 0 ns91 0 0.000513810701581
Ca93 ns93 0 1e-12
Ca94 ns94 0 1e-12
Ra93 ns93 0 155668.408304
Ra94 ns94 0 155668.408304
Ga93 ns93 0 ns94 0 -0.000296848463726
Ga94 ns94 0 ns93 0 0.000296848463726
Ca95 ns95 0 1e-12
Ra95 ns95 0 15779.1604208
Ca96 ns96 0 1e-12
Ca97 ns97 0 1e-12
Ra96 ns96 0 32883474.1271
Ra97 ns97 0 32883474.1271
Ga96 ns96 0 ns97 0 -3.16256979093e-05
Ga97 ns97 0 ns96 0 3.16256979093e-05
Ca98 ns98 0 1e-12
Ra98 ns98 0 69724.8262339
Ca99 ns99 0 1e-12
Ra99 ns99 0 318631.289568
Ca100 ns100 0 1e-12
Ra100 ns100 0 523373.110634
Ca101 ns101 0 1e-12
Ra101 ns101 0 668327.014776
Ca102 ns102 0 1e-12
Ra102 ns102 0 1942947.76541
Ca103 ns103 0 1e-12
Ra103 ns103 0 6618891.27384
Ca104 ns104 0 1e-12
Ca105 ns105 0 1e-12
Ra104 ns104 0 19641700.5476
Ra105 ns105 0 19641700.5476
Ga104 ns104 0 ns105 0 -2.2454397919e-09
Ga105 ns105 0 ns104 0 2.2454397919e-09
Ca106 ns106 0 1e-12
Ra106 ns106 0 38789596.6459
Ca107 ns107 0 1e-12
Ca108 ns108 0 1e-12
Ra107 ns107 0 823855000.612
Ra108 ns108 0 823855000.612
Ga107 ns107 0 ns108 0 -6.01699940394e-08
Ga108 ns108 0 ns107 0 6.01699940394e-08
Ca109 ns109 0 1e-12
Ra109 ns109 0 45.1788782174
Ca110 ns110 0 1e-12
Ra110 ns110 0 103.213573083
Ca111 ns111 0 1e-12
Ca112 ns112 0 1e-12
Ra111 ns111 0 920.546820472
Ra112 ns112 0 920.546820472
Ga111 ns111 0 ns112 0 -0.00730944157934
Ga112 ns112 0 ns111 0 0.00730944157934
Ca113 ns113 0 1e-12
Ca114 ns114 0 1e-12
Ra113 ns113 0 1331.73311779
Ra114 ns114 0 1331.73311779
Ga113 ns113 0 ns114 0 -0.00651257946538
Ga114 ns114 0 ns113 0 0.00651257946538
Ca115 ns115 0 1e-12
Ca116 ns116 0 1e-12
Ra115 ns115 0 814.448879014
Ra116 ns116 0 814.448879014
Ga115 ns115 0 ns116 0 -0.0061526750092
Ga116 ns116 0 ns115 0 0.0061526750092
Ca117 ns117 0 1e-12
Ca118 ns118 0 1e-12
Ra117 ns117 0 738.937726632
Ra118 ns118 0 738.937726632
Ga117 ns117 0 ns118 0 -0.00449436299811
Ga118 ns118 0 ns117 0 0.00449436299811
Ca119 ns119 0 1e-12
Ca120 ns120 0 1e-12
Ra119 ns119 0 552.776620921
Ra120 ns120 0 552.776620921
Ga119 ns119 0 ns120 0 -0.00293280136661
Ga120 ns120 0 ns119 0 0.00293280136661
Ca121 ns121 0 1e-12
Ca122 ns122 0 1e-12
Ra121 ns121 0 853.368212251
Ra122 ns122 0 853.368212251
Ga121 ns121 0 ns122 0 -0.00260468136653
Ga122 ns122 0 ns121 0 0.00260468136653
Ca123 ns123 0 1e-12
Ra123 ns123 0 401.146088017
Ca124 ns124 0 1e-12
Ra124 ns124 0 1130.57397488
Ca125 ns125 0 1e-12
Ca126 ns126 0 1e-12
Ra125 ns125 0 9448.03846463
Ra126 ns126 0 9448.03846463
Ga125 ns125 0 ns126 0 -0.000859357220223
Ga126 ns126 0 ns125 0 0.000859357220223
Ca127 ns127 0 1e-12
Ca128 ns128 0 1e-12
Ra127 ns127 0 5393.96603901
Ra128 ns128 0 5393.96603901
Ga127 ns127 0 ns128 0 -0.000513810701581
Ga128 ns128 0 ns127 0 0.000513810701581
Ca129 ns129 0 1e-12
Ca130 ns130 0 1e-12
Ra129 ns129 0 155668.408304
Ra130 ns130 0 155668.408304
Ga129 ns129 0 ns130 0 -0.000296848463726
Ga130 ns130 0 ns129 0 0.000296848463726
Ca131 ns131 0 1e-12
Ra131 ns131 0 15779.1604208
Ca132 ns132 0 1e-12
Ca133 ns133 0 1e-12
Ra132 ns132 0 32883474.1271
Ra133 ns133 0 32883474.1271
Ga132 ns132 0 ns133 0 -3.16256979093e-05
Ga133 ns133 0 ns132 0 3.16256979093e-05
Ca134 ns134 0 1e-12
Ra134 ns134 0 69724.8262339
Ca135 ns135 0 1e-12
Ra135 ns135 0 318631.289568
Ca136 ns136 0 1e-12
Ra136 ns136 0 523373.110634
Ca137 ns137 0 1e-12
Ra137 ns137 0 668327.014776
Ca138 ns138 0 1e-12
Ra138 ns138 0 1942947.76541
Ca139 ns139 0 1e-12
Ra139 ns139 0 6618891.27384
Ca140 ns140 0 1e-12
Ca141 ns141 0 1e-12
Ra140 ns140 0 19641700.5476
Ra141 ns141 0 19641700.5476
Ga140 ns140 0 ns141 0 -2.2454397919e-09
Ga141 ns141 0 ns140 0 2.2454397919e-09
Ca142 ns142 0 1e-12
Ra142 ns142 0 38789596.6459
Ca143 ns143 0 1e-12
Ca144 ns144 0 1e-12
Ra143 ns143 0 823855000.612
Ra144 ns144 0 823855000.612
Ga143 ns143 0 ns144 0 -6.01699940394e-08
Ga144 ns144 0 ns143 0 6.01699940394e-08
Ca145 ns145 0 1e-12
Ra145 ns145 0 45.1788782174
Ca146 ns146 0 1e-12
Ra146 ns146 0 103.213573083
Ca147 ns147 0 1e-12
Ca148 ns148 0 1e-12
Ra147 ns147 0 920.546820472
Ra148 ns148 0 920.546820472
Ga147 ns147 0 ns148 0 -0.00730944157934
Ga148 ns148 0 ns147 0 0.00730944157934
Ca149 ns149 0 1e-12
Ca150 ns150 0 1e-12
Ra149 ns149 0 1331.73311779
Ra150 ns150 0 1331.73311779
Ga149 ns149 0 ns150 0 -0.00651257946538
Ga150 ns150 0 ns149 0 0.00651257946538
Ca151 ns151 0 1e-12
Ca152 ns152 0 1e-12
Ra151 ns151 0 814.448879014
Ra152 ns152 0 814.448879014
Ga151 ns151 0 ns152 0 -0.0061526750092
Ga152 ns152 0 ns151 0 0.0061526750092
Ca153 ns153 0 1e-12
Ca154 ns154 0 1e-12
Ra153 ns153 0 738.937726632
Ra154 ns154 0 738.937726632
Ga153 ns153 0 ns154 0 -0.00449436299811
Ga154 ns154 0 ns153 0 0.00449436299811
Ca155 ns155 0 1e-12
Ca156 ns156 0 1e-12
Ra155 ns155 0 552.776620921
Ra156 ns156 0 552.776620921
Ga155 ns155 0 ns156 0 -0.00293280136661
Ga156 ns156 0 ns155 0 0.00293280136661
Ca157 ns157 0 1e-12
Ca158 ns158 0 1e-12
Ra157 ns157 0 853.368212251
Ra158 ns158 0 853.368212251
Ga157 ns157 0 ns158 0 -0.00260468136653
Ga158 ns158 0 ns157 0 0.00260468136653
Ca159 ns159 0 1e-12
Ra159 ns159 0 401.146088017
Ca160 ns160 0 1e-12
Ra160 ns160 0 1130.57397488
Ca161 ns161 0 1e-12
Ca162 ns162 0 1e-12
Ra161 ns161 0 9448.03846463
Ra162 ns162 0 9448.03846463
Ga161 ns161 0 ns162 0 -0.000859357220223
Ga162 ns162 0 ns161 0 0.000859357220223
Ca163 ns163 0 1e-12
Ca164 ns164 0 1e-12
Ra163 ns163 0 5393.96603901
Ra164 ns164 0 5393.96603901
Ga163 ns163 0 ns164 0 -0.000513810701581
Ga164 ns164 0 ns163 0 0.000513810701581
Ca165 ns165 0 1e-12
Ca166 ns166 0 1e-12
Ra165 ns165 0 155668.408304
Ra166 ns166 0 155668.408304
Ga165 ns165 0 ns166 0 -0.000296848463726
Ga166 ns166 0 ns165 0 0.000296848463726
Ca167 ns167 0 1e-12
Ra167 ns167 0 15779.1604208
Ca168 ns168 0 1e-12
Ca169 ns169 0 1e-12
Ra168 ns168 0 32883474.1271
Ra169 ns169 0 32883474.1271
Ga168 ns168 0 ns169 0 -3.16256979093e-05
Ga169 ns169 0 ns168 0 3.16256979093e-05
Ca170 ns170 0 1e-12
Ra170 ns170 0 69724.8262339
Ca171 ns171 0 1e-12
Ra171 ns171 0 318631.289568
Ca172 ns172 0 1e-12
Ra172 ns172 0 523373.110634
Ca173 ns173 0 1e-12
Ra173 ns173 0 668327.014776
Ca174 ns174 0 1e-12
Ra174 ns174 0 1942947.76541
Ca175 ns175 0 1e-12
Ra175 ns175 0 6618891.27384
Ca176 ns176 0 1e-12
Ca177 ns177 0 1e-12
Ra176 ns176 0 19641700.5476
Ra177 ns177 0 19641700.5476
Ga176 ns176 0 ns177 0 -2.2454397919e-09
Ga177 ns177 0 ns176 0 2.2454397919e-09
Ca178 ns178 0 1e-12
Ra178 ns178 0 38789596.6459
Ca179 ns179 0 1e-12
Ca180 ns180 0 1e-12
Ra179 ns179 0 823855000.612
Ra180 ns180 0 823855000.612
Ga179 ns179 0 ns180 0 -6.01699940394e-08
Ga180 ns180 0 ns179 0 6.01699940394e-08
Ca181 ns181 0 1e-12
Ra181 ns181 0 45.1788782174
Ca182 ns182 0 1e-12
Ra182 ns182 0 103.213573083
Ca183 ns183 0 1e-12
Ca184 ns184 0 1e-12
Ra183 ns183 0 920.546820472
Ra184 ns184 0 920.546820472
Ga183 ns183 0 ns184 0 -0.00730944157934
Ga184 ns184 0 ns183 0 0.00730944157934
Ca185 ns185 0 1e-12
Ca186 ns186 0 1e-12
Ra185 ns185 0 1331.73311779
Ra186 ns186 0 1331.73311779
Ga185 ns185 0 ns186 0 -0.00651257946538
Ga186 ns186 0 ns185 0 0.00651257946538
Ca187 ns187 0 1e-12
Ca188 ns188 0 1e-12
Ra187 ns187 0 814.448879014
Ra188 ns188 0 814.448879014
Ga187 ns187 0 ns188 0 -0.0061526750092
Ga188 ns188 0 ns187 0 0.0061526750092
Ca189 ns189 0 1e-12
Ca190 ns190 0 1e-12
Ra189 ns189 0 738.937726632
Ra190 ns190 0 738.937726632
Ga189 ns189 0 ns190 0 -0.00449436299811
Ga190 ns190 0 ns189 0 0.00449436299811
Ca191 ns191 0 1e-12
Ca192 ns192 0 1e-12
Ra191 ns191 0 552.776620921
Ra192 ns192 0 552.776620921
Ga191 ns191 0 ns192 0 -0.00293280136661
Ga192 ns192 0 ns191 0 0.00293280136661
Ca193 ns193 0 1e-12
Ca194 ns194 0 1e-12
Ra193 ns193 0 853.368212251
Ra194 ns194 0 853.368212251
Ga193 ns193 0 ns194 0 -0.00260468136653
Ga194 ns194 0 ns193 0 0.00260468136653
Ca195 ns195 0 1e-12
Ra195 ns195 0 401.146088017
Ca196 ns196 0 1e-12
Ra196 ns196 0 1130.57397488
Ca197 ns197 0 1e-12
Ca198 ns198 0 1e-12
Ra197 ns197 0 9448.03846463
Ra198 ns198 0 9448.03846463
Ga197 ns197 0 ns198 0 -0.000859357220223
Ga198 ns198 0 ns197 0 0.000859357220223
Ca199 ns199 0 1e-12
Ca200 ns200 0 1e-12
Ra199 ns199 0 5393.96603901
Ra200 ns200 0 5393.96603901
Ga199 ns199 0 ns200 0 -0.000513810701581
Ga200 ns200 0 ns199 0 0.000513810701581
Ca201 ns201 0 1e-12
Ca202 ns202 0 1e-12
Ra201 ns201 0 155668.408304
Ra202 ns202 0 155668.408304
Ga201 ns201 0 ns202 0 -0.000296848463726
Ga202 ns202 0 ns201 0 0.000296848463726
Ca203 ns203 0 1e-12
Ra203 ns203 0 15779.1604208
Ca204 ns204 0 1e-12
Ca205 ns205 0 1e-12
Ra204 ns204 0 32883474.1271
Ra205 ns205 0 32883474.1271
Ga204 ns204 0 ns205 0 -3.16256979093e-05
Ga205 ns205 0 ns204 0 3.16256979093e-05
Ca206 ns206 0 1e-12
Ra206 ns206 0 69724.8262339
Ca207 ns207 0 1e-12
Ra207 ns207 0 318631.289568
Ca208 ns208 0 1e-12
Ra208 ns208 0 523373.110634
Ca209 ns209 0 1e-12
Ra209 ns209 0 668327.014776
Ca210 ns210 0 1e-12
Ra210 ns210 0 1942947.76541
Ca211 ns211 0 1e-12
Ra211 ns211 0 6618891.27384
Ca212 ns212 0 1e-12
Ca213 ns213 0 1e-12
Ra212 ns212 0 19641700.5476
Ra213 ns213 0 19641700.5476
Ga212 ns212 0 ns213 0 -2.2454397919e-09
Ga213 ns213 0 ns212 0 2.2454397919e-09
Ca214 ns214 0 1e-12
Ra214 ns214 0 38789596.6459
Ca215 ns215 0 1e-12
Ca216 ns216 0 1e-12
Ra215 ns215 0 823855000.612
Ra216 ns216 0 823855000.612
Ga215 ns215 0 ns216 0 -6.01699940394e-08
Ga216 ns216 0 ns215 0 6.01699940394e-08

Gb1_1 ns1 0 ni1 0 0.0221342370474
Gb2_1 ns2 0 ni1 0 0.00968864820901
Gb3_1 ns3 0 ni1 0 -0.000965112860438
Gb4_1 ns4 0 ni1 0 -0.00732745372034
Gb5_1 ns5 0 ni1 0 0.00617559076195
Gb6_1 ns6 0 ni1 0 0.00367361021139
Gb7_1 ns7 0 ni1 0 -0.00392050767023
Gb8_1 ns8 0 ni1 0 -0.00561532469493
Gb9_1 ns9 0 ni1 0 0.000595656900784
Gb10_1 ns10 0 ni1 0 0.00472249449624
Gb11_1 ns11 0 ni1 0 0.00327310494557
Gb12_1 ns12 0 ni1 0 -0.0012573542848
Gb13_1 ns13 0 ni1 0 -0.00222331554791
Gb14_1 ns14 0 ni1 0 0.00201950884639
Gb15_1 ns15 0 ni1 0 -0.00249285741497
Gb16_1 ns16 0 ni1 0 0.000884506473894
Gb17_1 ns17 0 ni1 0 -0.000307228581201
Gb18_1 ns18 0 ni1 0 0.000834553605109
Gb19_1 ns19 0 ni1 0 -0.000120641968252
Gb20_1 ns20 0 ni1 0 -0.00053717382647
Gb21_1 ns21 0 ni1 0 0.000296371608473
Gb22_1 ns22 0 ni1 0 2.84593578429e-05
Gb23_1 ns23 0 ni1 0 6.33747280167e-05
Gb24_1 ns24 0 ni1 0 -3.16040346151e-05
Gb25_1 ns25 0 ni1 0 2.25594309168e-05
Gb26_1 ns26 0 ni1 0 -1.43420938282e-05
Gb27_1 ns27 0 ni1 0 3.13842372905e-06
Gb28_1 ns28 0 ni1 0 1.9106827991e-06
Gb29_1 ns29 0 ni1 0 -1.49627349769e-06
Gb30_1 ns30 0 ni1 0 -5.14681875551e-07
Gb31_1 ns31 0 ni1 0 1.51082705339e-07
Gb32_1 ns32 0 ni1 0 1.14205838381e-09
Gb33_1 ns33 0 ni1 0 -5.09607524908e-08
Gb34_1 ns34 0 ni1 0 2.5780108237e-08
Gb35_1 ns35 0 ni1 0 -5.93112546856e-08
Gb36_1 ns36 0 ni1 0 4.3782675304e-08
Gb37_2 ns37 0 ni2 0 0.0221342370474
Gb38_2 ns38 0 ni2 0 0.00968864820901
Gb39_2 ns39 0 ni2 0 -0.000965112860438
Gb40_2 ns40 0 ni2 0 -0.00732745372034
Gb41_2 ns41 0 ni2 0 0.00617559076195
Gb42_2 ns42 0 ni2 0 0.00367361021139
Gb43_2 ns43 0 ni2 0 -0.00392050767023
Gb44_2 ns44 0 ni2 0 -0.00561532469493
Gb45_2 ns45 0 ni2 0 0.000595656900784
Gb46_2 ns46 0 ni2 0 0.00472249449624
Gb47_2 ns47 0 ni2 0 0.00327310494557
Gb48_2 ns48 0 ni2 0 -0.0012573542848
Gb49_2 ns49 0 ni2 0 -0.00222331554791
Gb50_2 ns50 0 ni2 0 0.00201950884639
Gb51_2 ns51 0 ni2 0 -0.00249285741497
Gb52_2 ns52 0 ni2 0 0.000884506473894
Gb53_2 ns53 0 ni2 0 -0.000307228581201
Gb54_2 ns54 0 ni2 0 0.000834553605109
Gb55_2 ns55 0 ni2 0 -0.000120641968252
Gb56_2 ns56 0 ni2 0 -0.00053717382647
Gb57_2 ns57 0 ni2 0 0.000296371608473
Gb58_2 ns58 0 ni2 0 2.84593578429e-05
Gb59_2 ns59 0 ni2 0 6.33747280167e-05
Gb60_2 ns60 0 ni2 0 -3.16040346151e-05
Gb61_2 ns61 0 ni2 0 2.25594309168e-05
Gb62_2 ns62 0 ni2 0 -1.43420938282e-05
Gb63_2 ns63 0 ni2 0 3.13842372905e-06
Gb64_2 ns64 0 ni2 0 1.9106827991e-06
Gb65_2 ns65 0 ni2 0 -1.49627349769e-06
Gb66_2 ns66 0 ni2 0 -5.14681875551e-07
Gb67_2 ns67 0 ni2 0 1.51082705339e-07
Gb68_2 ns68 0 ni2 0 1.14205838381e-09
Gb69_2 ns69 0 ni2 0 -5.09607524908e-08
Gb70_2 ns70 0 ni2 0 2.5780108237e-08
Gb71_2 ns71 0 ni2 0 -5.93112546856e-08
Gb72_2 ns72 0 ni2 0 4.3782675304e-08
Gb73_3 ns73 0 ni3 0 0.0221342370474
Gb74_3 ns74 0 ni3 0 0.00968864820901
Gb75_3 ns75 0 ni3 0 -0.000965112860438
Gb76_3 ns76 0 ni3 0 -0.00732745372034
Gb77_3 ns77 0 ni3 0 0.00617559076195
Gb78_3 ns78 0 ni3 0 0.00367361021139
Gb79_3 ns79 0 ni3 0 -0.00392050767023
Gb80_3 ns80 0 ni3 0 -0.00561532469493
Gb81_3 ns81 0 ni3 0 0.000595656900784
Gb82_3 ns82 0 ni3 0 0.00472249449624
Gb83_3 ns83 0 ni3 0 0.00327310494557
Gb84_3 ns84 0 ni3 0 -0.0012573542848
Gb85_3 ns85 0 ni3 0 -0.00222331554791
Gb86_3 ns86 0 ni3 0 0.00201950884639
Gb87_3 ns87 0 ni3 0 -0.00249285741497
Gb88_3 ns88 0 ni3 0 0.000884506473894
Gb89_3 ns89 0 ni3 0 -0.000307228581201
Gb90_3 ns90 0 ni3 0 0.000834553605109
Gb91_3 ns91 0 ni3 0 -0.000120641968252
Gb92_3 ns92 0 ni3 0 -0.00053717382647
Gb93_3 ns93 0 ni3 0 0.000296371608473
Gb94_3 ns94 0 ni3 0 2.84593578429e-05
Gb95_3 ns95 0 ni3 0 6.33747280167e-05
Gb96_3 ns96 0 ni3 0 -3.16040346151e-05
Gb97_3 ns97 0 ni3 0 2.25594309168e-05
Gb98_3 ns98 0 ni3 0 -1.43420938282e-05
Gb99_3 ns99 0 ni3 0 3.13842372905e-06
Gb100_3 ns100 0 ni3 0 1.9106827991e-06
Gb101_3 ns101 0 ni3 0 -1.49627349769e-06
Gb102_3 ns102 0 ni3 0 -5.14681875551e-07
Gb103_3 ns103 0 ni3 0 1.51082705339e-07
Gb104_3 ns104 0 ni3 0 1.14205838381e-09
Gb105_3 ns105 0 ni3 0 -5.09607524908e-08
Gb106_3 ns106 0 ni3 0 2.5780108237e-08
Gb107_3 ns107 0 ni3 0 -5.93112546856e-08
Gb108_3 ns108 0 ni3 0 4.3782675304e-08
Gb109_4 ns109 0 ni4 0 0.0221342370474
Gb110_4 ns110 0 ni4 0 0.00968864820901
Gb111_4 ns111 0 ni4 0 -0.000965112860438
Gb112_4 ns112 0 ni4 0 -0.00732745372034
Gb113_4 ns113 0 ni4 0 0.00617559076195
Gb114_4 ns114 0 ni4 0 0.00367361021139
Gb115_4 ns115 0 ni4 0 -0.00392050767023
Gb116_4 ns116 0 ni4 0 -0.00561532469493
Gb117_4 ns117 0 ni4 0 0.000595656900784
Gb118_4 ns118 0 ni4 0 0.00472249449624
Gb119_4 ns119 0 ni4 0 0.00327310494557
Gb120_4 ns120 0 ni4 0 -0.0012573542848
Gb121_4 ns121 0 ni4 0 -0.00222331554791
Gb122_4 ns122 0 ni4 0 0.00201950884639
Gb123_4 ns123 0 ni4 0 -0.00249285741497
Gb124_4 ns124 0 ni4 0 0.000884506473894
Gb125_4 ns125 0 ni4 0 -0.000307228581201
Gb126_4 ns126 0 ni4 0 0.000834553605109
Gb127_4 ns127 0 ni4 0 -0.000120641968252
Gb128_4 ns128 0 ni4 0 -0.00053717382647
Gb129_4 ns129 0 ni4 0 0.000296371608473
Gb130_4 ns130 0 ni4 0 2.84593578429e-05
Gb131_4 ns131 0 ni4 0 6.33747280167e-05
Gb132_4 ns132 0 ni4 0 -3.16040346151e-05
Gb133_4 ns133 0 ni4 0 2.25594309168e-05
Gb134_4 ns134 0 ni4 0 -1.43420938282e-05
Gb135_4 ns135 0 ni4 0 3.13842372905e-06
Gb136_4 ns136 0 ni4 0 1.9106827991e-06
Gb137_4 ns137 0 ni4 0 -1.49627349769e-06
Gb138_4 ns138 0 ni4 0 -5.14681875551e-07
Gb139_4 ns139 0 ni4 0 1.51082705339e-07
Gb140_4 ns140 0 ni4 0 1.14205838381e-09
Gb141_4 ns141 0 ni4 0 -5.09607524908e-08
Gb142_4 ns142 0 ni4 0 2.5780108237e-08
Gb143_4 ns143 0 ni4 0 -5.93112546856e-08
Gb144_4 ns144 0 ni4 0 4.3782675304e-08
Gb145_5 ns145 0 ni5 0 0.0221342370474
Gb146_5 ns146 0 ni5 0 0.00968864820901
Gb147_5 ns147 0 ni5 0 -0.000965112860438
Gb148_5 ns148 0 ni5 0 -0.00732745372034
Gb149_5 ns149 0 ni5 0 0.00617559076195
Gb150_5 ns150 0 ni5 0 0.00367361021139
Gb151_5 ns151 0 ni5 0 -0.00392050767023
Gb152_5 ns152 0 ni5 0 -0.00561532469493
Gb153_5 ns153 0 ni5 0 0.000595656900784
Gb154_5 ns154 0 ni5 0 0.00472249449624
Gb155_5 ns155 0 ni5 0 0.00327310494557
Gb156_5 ns156 0 ni5 0 -0.0012573542848
Gb157_5 ns157 0 ni5 0 -0.00222331554791
Gb158_5 ns158 0 ni5 0 0.00201950884639
Gb159_5 ns159 0 ni5 0 -0.00249285741497
Gb160_5 ns160 0 ni5 0 0.000884506473894
Gb161_5 ns161 0 ni5 0 -0.000307228581201
Gb162_5 ns162 0 ni5 0 0.000834553605109
Gb163_5 ns163 0 ni5 0 -0.000120641968252
Gb164_5 ns164 0 ni5 0 -0.00053717382647
Gb165_5 ns165 0 ni5 0 0.000296371608473
Gb166_5 ns166 0 ni5 0 2.84593578429e-05
Gb167_5 ns167 0 ni5 0 6.33747280167e-05
Gb168_5 ns168 0 ni5 0 -3.16040346151e-05
Gb169_5 ns169 0 ni5 0 2.25594309168e-05
Gb170_5 ns170 0 ni5 0 -1.43420938282e-05
Gb171_5 ns171 0 ni5 0 3.13842372905e-06
Gb172_5 ns172 0 ni5 0 1.9106827991e-06
Gb173_5 ns173 0 ni5 0 -1.49627349769e-06
Gb174_5 ns174 0 ni5 0 -5.14681875551e-07
Gb175_5 ns175 0 ni5 0 1.51082705339e-07
Gb176_5 ns176 0 ni5 0 1.14205838381e-09
Gb177_5 ns177 0 ni5 0 -5.09607524908e-08
Gb178_5 ns178 0 ni5 0 2.5780108237e-08
Gb179_5 ns179 0 ni5 0 -5.93112546856e-08
Gb180_5 ns180 0 ni5 0 4.3782675304e-08
Gb181_6 ns181 0 ni6 0 0.0221342370474
Gb182_6 ns182 0 ni6 0 0.00968864820901
Gb183_6 ns183 0 ni6 0 -0.000965112860438
Gb184_6 ns184 0 ni6 0 -0.00732745372034
Gb185_6 ns185 0 ni6 0 0.00617559076195
Gb186_6 ns186 0 ni6 0 0.00367361021139
Gb187_6 ns187 0 ni6 0 -0.00392050767023
Gb188_6 ns188 0 ni6 0 -0.00561532469493
Gb189_6 ns189 0 ni6 0 0.000595656900784
Gb190_6 ns190 0 ni6 0 0.00472249449624
Gb191_6 ns191 0 ni6 0 0.00327310494557
Gb192_6 ns192 0 ni6 0 -0.0012573542848
Gb193_6 ns193 0 ni6 0 -0.00222331554791
Gb194_6 ns194 0 ni6 0 0.00201950884639
Gb195_6 ns195 0 ni6 0 -0.00249285741497
Gb196_6 ns196 0 ni6 0 0.000884506473894
Gb197_6 ns197 0 ni6 0 -0.000307228581201
Gb198_6 ns198 0 ni6 0 0.000834553605109
Gb199_6 ns199 0 ni6 0 -0.000120641968252
Gb200_6 ns200 0 ni6 0 -0.00053717382647
Gb201_6 ns201 0 ni6 0 0.000296371608473
Gb202_6 ns202 0 ni6 0 2.84593578429e-05
Gb203_6 ns203 0 ni6 0 6.33747280167e-05
Gb204_6 ns204 0 ni6 0 -3.16040346151e-05
Gb205_6 ns205 0 ni6 0 2.25594309168e-05
Gb206_6 ns206 0 ni6 0 -1.43420938282e-05
Gb207_6 ns207 0 ni6 0 3.13842372905e-06
Gb208_6 ns208 0 ni6 0 1.9106827991e-06
Gb209_6 ns209 0 ni6 0 -1.49627349769e-06
Gb210_6 ns210 0 ni6 0 -5.14681875551e-07
Gb211_6 ns211 0 ni6 0 1.51082705339e-07
Gb212_6 ns212 0 ni6 0 1.14205838381e-09
Gb213_6 ns213 0 ni6 0 -5.09607524908e-08
Gb214_6 ns214 0 ni6 0 2.5780108237e-08
Gb215_6 ns215 0 ni6 0 -5.93112546856e-08
Gb216_6 ns216 0 ni6 0 4.3782675304e-08

Gc1_1 0 n2 ns1 0 -0.00485088969682
Gc1_2 0 n2 ns2 0 0.000301531372354
Gc1_3 0 n2 ns3 0 -0.000132164319814
Gc1_4 0 n2 ns4 0 -8.08915388827e-05
Gc1_5 0 n2 ns5 0 -0.000408400293676
Gc1_6 0 n2 ns6 0 0.0007766377269
Gc1_7 0 n2 ns7 0 -0.000441664834189
Gc1_8 0 n2 ns8 0 0.000222045578857
Gc1_9 0 n2 ns9 0 -0.00154580781446
Gc1_10 0 n2 ns10 0 0.00709007284979
Gc1_11 0 n2 ns11 0 0.00127918877408
Gc1_12 0 n2 ns12 0 0.00561354215352
Gc1_13 0 n2 ns13 0 0.00168596688877
Gc1_14 0 n2 ns14 0 0.00398636914093
Gc1_15 0 n2 ns15 0 -0.0109143729553
Gc1_16 0 n2 ns16 0 0.00399789210384
Gc1_17 0 n2 ns17 0 1.53353884839e-05
Gc1_18 0 n2 ns18 0 -3.55655227614e-07
Gc1_19 0 n2 ns19 0 -3.01872487384e-05
Gc1_20 0 n2 ns20 0 1.29483465402e-05
Gc1_21 0 n2 ns21 0 -2.52749765364e-07
Gc1_22 0 n2 ns22 0 -1.70776617958e-07
Gc1_23 0 n2 ns23 0 8.71957607934e-05
Gc1_24 0 n2 ns24 0 8.75918269483e-08
Gc1_25 0 n2 ns25 0 -5.13073503955e-08
Gc1_26 0 n2 ns26 0 -4.17514623305e-05
Gc1_27 0 n2 ns27 0 -8.59556204167e-05
Gc1_28 0 n2 ns28 0 0.000233707610118
Gc1_29 0 n2 ns29 0 0.000309914499708
Gc1_30 0 n2 ns30 0 -0.000353600186819
Gc1_31 0 n2 ns31 0 0.00940961272893
Gc1_32 0 n2 ns32 0 0.0119468787334
Gc1_33 0 n2 ns33 0 0.000594680488208
Gc1_34 0 n2 ns34 0 0.00132222194378
Gc1_35 0 n2 ns35 0 -1.65064806465e-06
Gc1_36 0 n2 ns36 0 -1.48262056661e-06
Gc1_37 0 n2 ns37 0 0.00105285577377
Gc1_38 0 n2 ns38 0 -0.000329847350444
Gc1_39 0 n2 ns39 0 -0.000159595741768
Gc1_40 0 n2 ns40 0 2.73776811607e-05
Gc1_41 0 n2 ns41 0 -0.000203212867325
Gc1_42 0 n2 ns42 0 0.000139994130971
Gc1_43 0 n2 ns43 0 -0.000484524740401
Gc1_44 0 n2 ns44 0 -0.000170215671479
Gc1_45 0 n2 ns45 0 -0.000641703674483
Gc1_46 0 n2 ns46 0 0.00146817766561
Gc1_47 0 n2 ns47 0 0.00387486725408
Gc1_48 0 n2 ns48 0 0.00233588360423
Gc1_49 0 n2 ns49 0 0.000698396389943
Gc1_50 0 n2 ns50 0 0.00101107496307
Gc1_51 0 n2 ns51 0 0.0109456095542
Gc1_52 0 n2 ns52 0 -0.000398240145658
Gc1_53 0 n2 ns53 0 6.29112717463e-06
Gc1_54 0 n2 ns54 0 2.09074330866e-06
Gc1_55 0 n2 ns55 0 -3.13605027698e-05
Gc1_56 0 n2 ns56 0 7.18797412291e-06
Gc1_57 0 n2 ns57 0 -3.65925123886e-08
Gc1_58 0 n2 ns58 0 -4.42276416389e-08
Gc1_59 0 n2 ns59 0 -4.75769954435e-05
Gc1_60 0 n2 ns60 0 4.40937918455e-08
Gc1_61 0 n2 ns61 0 5.63689949938e-09
Gc1_62 0 n2 ns62 0 -6.41902855173e-06
Gc1_63 0 n2 ns63 0 -0.000274084920208
Gc1_64 0 n2 ns64 0 0.000947875129677
Gc1_65 0 n2 ns65 0 0.000774881831302
Gc1_66 0 n2 ns66 0 -0.000133922585221
Gc1_67 0 n2 ns67 0 2.96616667062e-05
Gc1_68 0 n2 ns68 0 0.00797327568012
Gc1_69 0 n2 ns69 0 0.000883000779111
Gc1_70 0 n2 ns70 0 0.00128800843507
Gc1_71 0 n2 ns71 0 -9.70691135439e-07
Gc1_72 0 n2 ns72 0 -1.29769420419e-06
Gc1_73 0 n2 ns73 0 -0.000996461143538
Gc1_74 0 n2 ns74 0 0.00226443918004
Gc1_75 0 n2 ns75 0 0.000126597440944
Gc1_76 0 n2 ns76 0 -2.84341048892e-06
Gc1_77 0 n2 ns77 0 -0.000191319026149
Gc1_78 0 n2 ns78 0 2.08545443136e-06
Gc1_79 0 n2 ns79 0 0.000179919375501
Gc1_80 0 n2 ns80 0 -0.000793150107832
Gc1_81 0 n2 ns81 0 0.00252075435772
Gc1_82 0 n2 ns82 0 -0.00763264185291
Gc1_83 0 n2 ns83 0 0.00345876722606
Gc1_84 0 n2 ns84 0 -0.0136136434413
Gc1_85 0 n2 ns85 0 -0.000243137923844
Gc1_86 0 n2 ns86 0 -0.00437678887586
Gc1_87 0 n2 ns87 0 0.011326127262
Gc1_88 0 n2 ns88 0 -0.0046145337076
Gc1_89 0 n2 ns89 0 -1.49331332128e-05
Gc1_90 0 n2 ns90 0 -1.25071505318e-05
Gc1_91 0 n2 ns91 0 4.88365062225e-05
Gc1_92 0 n2 ns92 0 2.12423608648e-05
Gc1_93 0 n2 ns93 0 2.86434887962e-07
Gc1_94 0 n2 ns94 0 3.5784178942e-07
Gc1_95 0 n2 ns95 0 -6.54777046464e-05
Gc1_96 0 n2 ns96 0 -6.80703738237e-08
Gc1_97 0 n2 ns97 0 2.70381741922e-08
Gc1_98 0 n2 ns98 0 5.98859910564e-05
Gc1_99 0 n2 ns99 0 0.000145610242841
Gc1_100 0 n2 ns100 0 -0.000425157802504
Gc1_101 0 n2 ns101 0 -0.00047754189041
Gc1_102 0 n2 ns102 0 0.000393011422771
Gc1_103 0 n2 ns103 0 -0.0093974011596
Gc1_104 0 n2 ns104 0 -0.00683957143703
Gc1_105 0 n2 ns105 0 -0.000125618610169
Gc1_106 0 n2 ns106 0 -0.000543763166819
Gc1_107 0 n2 ns107 0 1.09724541917e-06
Gc1_108 0 n2 ns108 0 1.81045312887e-07
Gc1_109 0 n2 ns109 0 -0.000825280799325
Gc1_110 0 n2 ns110 0 -0.000709709767178
Gc1_111 0 n2 ns111 0 2.62993374903e-05
Gc1_112 0 n2 ns112 0 6.9374392357e-05
Gc1_113 0 n2 ns113 0 -0.000332958372141