**************************************************
* Manufacturer:           Wurth Elektronik 
* Kinds:                  Line Filter 
* Matchcode:              WE-CLFS
* Library Type:           LTspice
* Version:                rev22a
* Created/modified by:    Ella      
* Date and Time:          2022-05-23
* Team:                   eiSos EDA Service  
* Contact:                libraries@we-online.com
**************************************************
* Copyright(C) 2022 Würth Elektronik eiSos GmbH & Co. KG
* All Rights Reserved.
**************************************************
* Disclaimer: While Würth Elektronik eiSos has made every reasonable effort to ensure the accuracy
* of the simulation models provided, Würth Elektronik eiSos does not guarantee the exemption of error on
* the simulation models, nor does Würth Elektronik eiSos guarantee that the simulation model is current.
* Würth Elektronik eiSos reserves the right to make any adjustments at any time without notice.
* Würth Elektronik eiSos expressly disclaims all implied warranties regarding this simulation model.
**************************************************
* BEGIN ANSOFT HEADER
* node 1    Port1
* node 2    Port2
* node 3    Port3
* node 4    Port4
*     Date: Mon Apr 23 14:42:43 2018
*    Notes: Frequency range: 10000 to 1e+009 Hz, 801 points
*         : Maximum number of poles: 10000
*         : S-Matrix fitting error tolerance: 0.005
*         : Causality check tolerance: auto
*         : Passivity enforcement: on (by iterated fitting)
*         : Causality enforcement: off
*         : Fitting method: TWA
*         : Matrix fitting: By entire matrix
*         : Ensure Z-parameter accuracy: on
*         : Relative error control: off
*         : Common ground option: on
*         : Final fitting error: 0.00565634
*         : Final model order: 296
* END ANSOFT HEADER

************************************************************************************************************
*****************************************----810911001----**************************************************
************************************************************************************************************
************************************************************************************************************

.subckt 810911001 0 1 2 3 4
Vam1 1 n2 dc 0
Rport1 n2 0 50
Vam2 2 n4 dc 0
Rport2 n4 0 50
Vam3 3 n6 dc 0
Rport3 n6 0 50
Vam4 4 n8 dc 0
Rport4 n8 0 50

Fi1 0 ni1 Vam1 50
Gi1 0 ni1 1 0 1
Rt1 ni1 0 1
Fi2 0 ni2 Vam2 50
Gi2 0 ni2 2 0 1
Rt2 ni2 0 1
Fi3 0 ni3 Vam3 50
Gi3 0 ni3 3 0 1
Rt3 ni3 0 1
Fi4 0 ni4 Vam4 50
Gi4 0 ni4 4 0 1
Rt4 ni4 0 1

Ca1 ns1 0 1e-012
Ra1 ns1 0 167332707.549
Ca2 ns2 0 1e-012
Ra2 ns2 0 4396731.35459
Ca3 ns3 0 1e-012
Ra3 ns3 0 3480552.36065
Ca4 ns4 0 1e-012
Ra4 ns4 0 721499.929843
Ca5 ns5 0 1e-012
Ca6 ns6 0 1e-012
Ra5 ns5 0 22827822.174
Ra6 ns6 0 22827822.174
Ga5 ns5 0 ns6 0 -1.4005511538e-006
Ga6 ns6 0 ns5 0 1.4005511538e-006
Ca7 ns7 0 1e-012
Ra7 ns7 0 273539.620499
Ca8 ns8 0 1e-012
Ra8 ns8 0 176435.320864
Ca9 ns9 0 1e-012
Ra9 ns9 0 116771.572364
Ca10 ns10 0 1e-012
Ra10 ns10 0 43392.7063805
Ca11 ns11 0 1e-012
Ca12 ns12 0 1e-012
Ra11 ns11 0 137718.927567
Ra12 ns12 0 137718.927567
Ga11 ns11 0 ns12 0 0.000154421801373
Ga12 ns12 0 ns11 0 -0.000154421801373
Ca13 ns13 0 1e-012
Ca14 ns14 0 1e-012
Ra13 ns13 0 67828.0957284
Ra14 ns14 0 67828.0957284
Ga13 ns13 0 ns14 0 0.000229685377946
Ga14 ns14 0 ns13 0 -0.000229685377946
Ca15 ns15 0 1e-012
Ca16 ns16 0 1e-012
Ra15 ns15 0 33764.9807971
Ra16 ns16 0 33764.9807971
Ga15 ns15 0 ns16 0 0.000367779023977
Ga16 ns16 0 ns15 0 -0.000367779023977
Ca17 ns17 0 1e-012
Ca18 ns18 0 1e-012
Ra17 ns17 0 49452.6107741
Ra18 ns18 0 49452.6107741
Ga17 ns17 0 ns18 0 0.000396096289803
Ga18 ns18 0 ns17 0 -0.000396096289803
Ca19 ns19 0 1e-012
Ca20 ns20 0 1e-012
Ra19 ns19 0 24829.2626737
Ra20 ns20 0 24829.2626737
Ga19 ns19 0 ns20 0 0.000728407039408
Ga20 ns20 0 ns19 0 -0.000728407039408
Ca21 ns21 0 1e-012
Ca22 ns22 0 1e-012
Ra21 ns21 0 1328.42586313
Ra22 ns22 0 1328.42586313
Ga21 ns21 0 ns22 0 4.587156757e-005
Ga22 ns22 0 ns21 0 -4.587156757e-005
Ca23 ns23 0 1e-012
Ca24 ns24 0 1e-012
Ra23 ns23 0 18776.814525
Ra24 ns24 0 18776.814525
Ga23 ns23 0 ns24 0 0.000814377293503
Ga24 ns24 0 ns23 0 -0.000814377293503
Ca25 ns25 0 1e-012
Ca26 ns26 0 1e-012
Ra25 ns25 0 11827.1856293
Ra26 ns26 0 11827.1856293
Ga25 ns25 0 ns26 0 0.00104573009802
Ga26 ns26 0 ns25 0 -0.00104573009802
Ca27 ns27 0 1e-012
Ca28 ns28 0 1e-012
Ra27 ns27 0 13175.427314
Ra28 ns28 0 13175.427314
Ga27 ns27 0 ns28 0 0.00113625598867
Ga28 ns28 0 ns27 0 -0.00113625598867
Ca29 ns29 0 1e-012
Ra29 ns29 0 724.874060203
Ca30 ns30 0 1e-012
Ca31 ns31 0 1e-012
Ra30 ns30 0 10717.0108418
Ra31 ns31 0 10717.0108418
Ga30 ns30 0 ns31 0 0.00154213641468
Ga31 ns31 0 ns30 0 -0.00154213641468
Ca32 ns32 0 1e-012
Ca33 ns33 0 1e-012
Ra32 ns32 0 4276.21363051
Ra33 ns33 0 4276.21363051
Ga32 ns32 0 ns33 0 0.00174904219573
Ga33 ns33 0 ns32 0 -0.00174904219573
Ca34 ns34 0 1e-012
Ca35 ns35 0 1e-012
Ra34 ns34 0 6898.93457168
Ra35 ns35 0 6898.93457168
Ga34 ns34 0 ns35 0 0.00178553159633
Ga35 ns35 0 ns34 0 -0.00178553159633
Ca36 ns36 0 1e-012
Ca37 ns37 0 1e-012
Ra36 ns36 0 8829.57998465
Ra37 ns37 0 8829.57998465
Ga36 ns36 0 ns37 0 0.00194815607348
Ga37 ns37 0 ns36 0 -0.00194815607348
Ca38 ns38 0 1e-012
Ca39 ns39 0 1e-012
Ra38 ns38 0 6759.20618664
Ra39 ns39 0 6759.20618664
Ga38 ns38 0 ns39 0 0.00234293026349
Ga39 ns39 0 ns38 0 -0.00234293026349
Ca40 ns40 0 1e-012
Ca41 ns41 0 1e-012
Ra40 ns40 0 2743.24335304
Ra41 ns41 0 2743.24335304
Ga40 ns40 0 ns41 0 -0.00259146234297
Ga41 ns41 0 ns40 0 0.00259146234297
Ca42 ns42 0 1e-012
Ca43 ns43 0 1e-012
Ra42 ns42 0 4741.47586557
Ra43 ns43 0 4741.47586557
Ga42 ns42 0 ns43 0 0.00263254368951
Ga43 ns43 0 ns42 0 -0.00263254368951
Ca44 ns44 0 1e-012
Ca45 ns45 0 1e-012
Ra44 ns44 0 6687.8825643
Ra45 ns45 0 6687.8825643
Ga44 ns44 0 ns45 0 0.00288992413897
Ga45 ns45 0 ns44 0 -0.00288992413897
Ca46 ns46 0 1e-012
Ca47 ns47 0 1e-012
Ra46 ns46 0 2953.7660294
Ra47 ns47 0 2953.7660294
Ga46 ns46 0 ns47 0 -0.00323057842684
Ga47 ns47 0 ns46 0 0.00323057842684
Ca48 ns48 0 1e-012
Ca49 ns49 0 1e-012
Ra48 ns48 0 5845.40758255
Ra49 ns49 0 5845.40758255
Ga48 ns48 0 ns49 0 0.0032524931721
Ga49 ns49 0 ns48 0 -0.0032524931721
Ca50 ns50 0 1e-012
Ca51 ns51 0 1e-012
Ra50 ns50 0 3774.65458885
Ra51 ns51 0 3774.65458885
Ga50 ns50 0 ns51 0 -0.00365820606373
Ga51 ns51 0 ns50 0 0.00365820606373
Ca52 ns52 0 1e-012
Ca53 ns53 0 1e-012
Ra52 ns52 0 3796.25928773
Ra53 ns53 0 3796.25928773
Ga52 ns52 0 ns53 0 0.00378923462227
Ga53 ns53 0 ns52 0 -0.00378923462227
Ca54 ns54 0 1e-012
Ca55 ns55 0 1e-012
Ra54 ns54 0 2692.51224101
Ra55 ns55 0 2692.51224101
Ga54 ns54 0 ns55 0 -0.00389318661825
Ga55 ns55 0 ns54 0 0.00389318661825
Ca56 ns56 0 1e-012
Ca57 ns57 0 1e-012
Ra56 ns56 0 5136.04873773
Ra57 ns57 0 5136.04873773
Ga56 ns56 0 ns57 0 0.00429895833274
Ga57 ns57 0 ns56 0 -0.00429895833274
Ca58 ns58 0 1e-012
Ca59 ns59 0 1e-012
Ra58 ns58 0 3216.07913391
Ra59 ns59 0 3216.07913391
Ga58 ns58 0 ns59 0 0.00444733034504
Ga59 ns59 0 ns58 0 -0.00444733034504
Ca60 ns60 0 1e-012
Ca61 ns61 0 1e-012
Ra60 ns60 0 4276.21698172
Ra61 ns61 0 4276.21698172
Ga60 ns60 0 ns61 0 0.00477646399499
Ga61 ns61 0 ns60 0 -0.00477646399499
Ca62 ns62 0 1e-012
Ca63 ns63 0 1e-012
Ra62 ns62 0 4365.41657854
Ra63 ns63 0 4365.41657854
Ga62 ns62 0 ns63 0 0.00495284410519
Ga63 ns63 0 ns62 0 -0.00495284410519
Ca64 ns64 0 1e-012
Ca65 ns65 0 1e-012
Ra64 ns64 0 4021.10594552
Ra65 ns65 0 4021.10594552
Ga64 ns64 0 ns65 0 0.0052679588991
Ga65 ns65 0 ns64 0 -0.0052679588991
Ca66 ns66 0 1e-012
Ca67 ns67 0 1e-012
Ra66 ns66 0 3166.65257129
Ra67 ns67 0 3166.65257129
Ga66 ns66 0 ns67 0 0.00550772062644
Ga67 ns67 0 ns66 0 -0.00550772062644
Ca68 ns68 0 1e-012
Ca69 ns69 0 1e-012
Ra68 ns68 0 3439.26242085
Ra69 ns69 0 3439.26242085
Ga68 ns68 0 ns69 0 0.00578346218525
Ga69 ns69 0 ns68 0 -0.00578346218525
Ca70 ns70 0 1e-012
Ca71 ns71 0 1e-012
Ra70 ns70 0 4006.88571172
Ra71 ns71 0 4006.88571172
Ga70 ns70 0 ns71 0 -0.00607250286115
Ga71 ns71 0 ns70 0 0.00607250286115
Ca72 ns72 0 1e-012
Ca73 ns73 0 1e-012
Ra72 ns72 0 3442.4450392
Ra73 ns73 0 3442.4450392
Ga72 ns72 0 ns73 0 0.00630036847671
Ga73 ns73 0 ns72 0 -0.00630036847671
Ca74 ns74 0 1e-012
Ra74 ns74 0 148.541678255
Ca75 ns75 0 1e-012
Ra75 ns75 0 167332707.549
Ca76 ns76 0 1e-012
Ra76 ns76 0 4396731.35459
Ca77 ns77 0 1e-012
Ra77 ns77 0 3480552.36065
Ca78 ns78 0 1e-012
Ra78 ns78 0 721499.929843
Ca79 ns79 0 1e-012
Ca80 ns80 0 1e-012
Ra79 ns79 0 22827822.174
Ra80 ns80 0 22827822.174
Ga79 ns79 0 ns80 0 -1.4005511538e-006
Ga80 ns80 0 ns79 0 1.4005511538e-006
Ca81 ns81 0 1e-012
Ra81 ns81 0 273539.620499
Ca82 ns82 0 1e-012
Ra82 ns82 0 176435.320864
Ca83 ns83 0 1e-012
Ra83 ns83 0 116771.572364
Ca84 ns84 0 1e-012
Ra84 ns84 0 43392.7063805
Ca85 ns85 0 1e-012
Ca86 ns86 0 1e-012
Ra85 ns85 0 137718.927567
Ra86 ns86 0 137718.927567
Ga85 ns85 0 ns86 0 0.000154421801373
Ga86 ns86 0 ns85 0 -0.000154421801373
Ca87 ns87 0 1e-012
Ca88 ns88 0 1e-012
Ra87 ns87 0 67828.0957284
Ra88 ns88 0 67828.0957284
Ga87 ns87 0 ns88 0 0.000229685377946
Ga88 ns88 0 ns87 0 -0.000229685377946
Ca89 ns89 0 1e-012
Ca90 ns90 0 1e-012
Ra89 ns89 0 33764.9807971
Ra90 ns90 0 33764.9807971
Ga89 ns89 0 ns90 0 0.000367779023977
Ga90 ns90 0 ns89 0 -0.000367779023977
Ca91 ns91 0 1e-012
Ca92 ns92 0 1e-012
Ra91 ns91 0 49452.6107741
Ra92 ns92 0 49452.6107741
Ga91 ns91 0 ns92 0 0.000396096289803
Ga92 ns92 0 ns91 0 -0.000396096289803
Ca93 ns93 0 1e-012
Ca94 ns94 0 1e-012
Ra93 ns93 0 24829.2626737
Ra94 ns94 0 24829.2626737
Ga93 ns93 0 ns94 0 0.000728407039408
Ga94 ns94 0 ns93 0 -0.000728407039408
Ca95 ns95 0 1e-012
Ca96 ns96 0 1e-012
Ra95 ns95 0 1328.42586313
Ra96 ns96 0 1328.42586313
Ga95 ns95 0 ns96 0 4.587156757e-005
Ga96 ns96 0 ns95 0 -4.587156757e-005
Ca97 ns97 0 1e-012
Ca98 ns98 0 1e-012
Ra97 ns97 0 18776.814525
Ra98 ns98 0 18776.814525
Ga97 ns97 0 ns98 0 0.000814377293503
Ga98 ns98 0 ns97 0 -0.000814377293503
Ca99 ns99 0 1e-012
Ca100 ns100 0 1e-012
Ra99 ns99 0 11827.1856293
Ra100 ns100 0 11827.1856293
Ga99 ns99 0 ns100 0 0.00104573009802
Ga100 ns100 0 ns99 0 -0.00104573009802
Ca101 ns101 0 1e-012
Ca102 ns102 0 1e-012
Ra101 ns101 0 13175.427314
Ra102 ns102 0 13175.427314
Ga101 ns101 0 ns102 0 0.00113625598867
Ga102 ns102 0 ns101 0 -0.00113625598867
Ca103 ns103 0 1e-012
Ra103 ns103 0 724.874060203
Ca104 ns104 0 1e-012
Ca105 ns105 0 1e-012
Ra104 ns104 0 10717.0108418
Ra105 ns105 0 10717.0108418
Ga104 ns104 0 ns105 0 0.00154213641468
Ga105 ns105 0 ns104 0 -0.00154213641468
Ca106 ns106 0 1e-012
Ca107 ns107 0 1e-012
Ra106 ns106 0 4276.21363051
Ra107 ns107 0 4276.21363051
Ga106 ns106 0 ns107 0 0.00174904219573
Ga107 ns107 0 ns106 0 -0.00174904219573
Ca108 ns108 0 1e-012
Ca109 ns109 0 1e-012
Ra108 ns108 0 6898.93457168
Ra109 ns109 0 6898.93457168
Ga108 ns108 0 ns109 0 0.00178553159633
Ga109 ns109 0 ns108 0 -0.00178553159633
Ca110 ns110 0 1e-012
Ca111 ns111 0 1e-012
Ra110 ns110 0 8829.57998465
Ra111 ns111 0 8829.57998465
Ga110 ns110 0 ns111 0 0.00194815607348
Ga111 ns111 0 ns110 0 -0.00194815607348
Ca112 ns112 0 1e-012
Ca113 ns113 0 1e-012
Ra112 ns112 0 6759.20618664
Ra113 ns113 0 6759.20618664
Ga112 ns112 0 ns113 0 0.00234293026349
Ga113 ns113 0 ns112 0 -0.00234293026349
Ca114 ns114 0 1e-012
Ca115 ns115 0 1e-012
Ra114 ns114 0 2743.24335304
Ra115 ns115 0 2743.24335304
Ga114 ns114 0 ns115 0 -0.00259146234297
Ga115 ns115 0 ns114 0 0.00259146234297
Ca116 ns116 0 1e-012
Ca117 ns117 0 1e-012
Ra116 ns116 0 4741.47586557
Ra117 ns117 0 4741.47586557
Ga116 ns116 0 ns117 0 0.00263254368951
Ga117 ns117 0 ns116 0 -0.00263254368951
Ca118 ns118 0 1e-012
Ca119 ns119 0 1e-012
Ra118 ns118 0 6687.8825643
Ra119 ns119 0 6687.8825643
Ga118 ns118 0 ns119 0 0.00288992413897
Ga119 ns119 0 ns118 0 -0.00288992413897
Ca120 ns120 0 1e-012
Ca121 ns121 0 1e-012
Ra120 ns120 0 2953.7660294
Ra121 ns121 0 2953.7660294
Ga120 ns120 0 ns121 0 -0.00323057842684
Ga121 ns121 0 ns120 0 0.00323057842684
Ca122 ns122 0 1e-012
Ca123 ns123 0 1e-012
Ra122 ns122 0 5845.40758255
Ra123 ns123 0 5845.40758255
Ga122 ns122 0 ns123 0 0.0032524931721
Ga123 ns123 0 ns122 0 -0.0032524931721
Ca124 ns124 0 1e-012
Ca125 ns125 0 1e-012
Ra124 ns124 0 3774.65458885
Ra125 ns125 0 3774.65458885
Ga124 ns124 0 ns125 0 -0.00365820606373
Ga125 ns125 0 ns124 0 0.00365820606373
Ca126 ns126 0 1e-012
Ca127 ns127 0 1e-012
Ra126 ns126 0 3796.25928773
Ra127 ns127 0 3796.25928773
Ga126 ns126 0 ns127 0 0.00378923462227
Ga127 ns127 0 ns126 0 -0.00378923462227
Ca128 ns128 0 1e-012
Ca129 ns129 0 1e-012
Ra128 ns128 0 2692.51224101
Ra129 ns129 0 2692.51224101
Ga128 ns128 0 ns129 0 -0.00389318661825
Ga129 ns129 0 ns128 0 0.00389318661825
Ca130 ns130 0 1e-012
Ca131 ns131 0 1e-012
Ra130 ns130 0 5136.04873773
Ra131 ns131 0 5136.04873773
Ga130 ns130 0 ns131 0 0.00429895833274
Ga131 ns131 0 ns130 0 -0.00429895833274
Ca132 ns132 0 1e-012
Ca133 ns133 0 1e-012
Ra132 ns132 0 3216.07913391
Ra133 ns133 0 3216.07913391
Ga132 ns132 0 ns133 0 0.00444733034504
Ga133 ns133 0 ns132 0 -0.00444733034504
Ca134 ns134 0 1e-012
Ca135 ns135 0 1e-012
Ra134 ns134 0 4276.21698172
Ra135 ns135 0 4276.21698172
Ga134 ns134 0 ns135 0 0.00477646399499
Ga135 ns135 0 ns134 0 -0.00477646399499
Ca136 ns136 0 1e-012
Ca137 ns137 0 1e-012
Ra136 ns136 0 4365.41657854
Ra137 ns137 0 4365.41657854
Ga136 ns136 0 ns137 0 0.00495284410519
Ga137 ns137 0 ns136 0 -0.00495284410519
Ca138 ns138 0 1e-012
Ca139 ns139 0 1e-012
Ra138 ns138 0 4021.10594552
Ra139 ns139 0 4021.10594552
Ga138 ns138 0 ns139 0 0.0052679588991
Ga139 ns139 0 ns138 0 -0.0052679588991
Ca140 ns140 0 1e-012
Ca141 ns141 0 1e-012
Ra140 ns140 0 3166.65257129
Ra141 ns141 0 3166.65257129
Ga140 ns140 0 ns141 0 0.00550772062644
Ga141 ns141 0 ns140 0 -0.00550772062644
Ca142 ns142 0 1e-012
Ca143 ns143 0 1e-012
Ra142 ns142 0 3439.26242085
Ra143 ns143 0 3439.26242085
Ga142 ns142 0 ns143 0 0.00578346218525
Ga143 ns143 0 ns142 0 -0.00578346218525
Ca144 ns144 0 1e-012
Ca145 ns145 0 1e-012
Ra144 ns144 0 4006.88571172
Ra145 ns145 0 4006.88571172
Ga144 ns144 0 ns145 0 -0.00607250286115
Ga145 ns145 0 ns144 0 0.00607250286115
Ca146 ns146 0 1e-012
Ca147 ns147 0 1e-012
Ra146 ns146 0 3442.4450392
Ra147 ns147 0 3442.4450392
Ga146 ns146 0 ns147 0 0.00630036847671
Ga147 ns147 0 ns146 0 -0.00630036847671
Ca148 ns148 0 1e-012
Ra148 ns148 0 148.541678255
Ca149 ns149 0 1e-012
Ra149 ns149 0 167332707.549
Ca150 ns150 0 1e-012
Ra150 ns150 0 4396731.35459
Ca151 ns151 0 1e-012
Ra151 ns151 0 3480552.36065
Ca152 ns152 0 1e-012
Ra152 ns152 0 721499.929843
Ca153 ns153 0 1e-012
Ca154 ns154 0 1e-012
Ra153 ns153 0 22827822.174
Ra154 ns154 0 22827822.174
Ga153 ns153 0 ns154 0 -1.4005511538e-006
Ga154 ns154 0 ns153 0 1.4005511538e-006
Ca155 ns155 0 1e-012
Ra155 ns155 0 273539.620499
Ca156 ns156 0 1e-012
Ra156 ns156 0 176435.320864
Ca157 ns157 0 1e-012
Ra157 ns157 0 116771.572364
Ca158 ns158 0 1e-012
Ra158 ns158 0 43392.7063805
Ca159 ns159 0 1e-012
Ca160 ns160 0 1e-012
Ra159 ns159 0 137718.927567
Ra160 ns160 0 137718.927567
Ga159 ns159 0 ns160 0 0.000154421801373
Ga160 ns160 0 ns159 0 -0.000154421801373
Ca161 ns161 0 1e-012
Ca162 ns162 0 1e-012
Ra161 ns161 0 67828.0957284
Ra162 ns162 0 67828.0957284
Ga161 ns161 0 ns162 0 0.000229685377946
Ga162 ns162 0 ns161 0 -0.000229685377946
Ca163 ns163 0 1e-012
Ca164 ns164 0 1e-012
Ra163 ns163 0 33764.9807971
Ra164 ns164 0 33764.9807971
Ga163 ns163 0 ns164 0 0.000367779023977
Ga164 ns164 0 ns163 0 -0.000367779023977
Ca165 ns165 0 1e-012
Ca166 ns166 0 1e-012
Ra165 ns165 0 49452.6107741
Ra166 ns166 0 49452.6107741
Ga165 ns165 0 ns166 0 0.000396096289803
Ga166 ns166 0 ns165 0 -0.000396096289803
Ca167 ns167 0 1e-012
Ca168 ns168 0 1e-012
Ra167 ns167 0 24829.2626737
Ra168 ns168 0 24829.2626737
Ga167 ns167 0 ns168 0 0.000728407039408
Ga168 ns168 0 ns167 0 -0.000728407039408
Ca169 ns169 0 1e-012
Ca170 ns170 0 1e-012
Ra169 ns169 0 1328.42586313
Ra170 ns170 0 1328.42586313
Ga169 ns169 0 ns170 0 4.587156757e-005
Ga170 ns170 0 ns169 0 -4.587156757e-005
Ca171 ns171 0 1e-012
Ca172 ns172 0 1e-012
Ra171 ns171 0 18776.814525
Ra172 ns172 0 18776.814525
Ga171 ns171 0 ns172 0 0.000814377293503
Ga172 ns172 0 ns171 0 -0.000814377293503
Ca173 ns173 0 1e-012
Ca174 ns174 0 1e-012
Ra173 ns173 0 11827.1856293
Ra174 ns174 0 11827.1856293
Ga173 ns173 0 ns174 0 0.00104573009802
Ga174 ns174 0 ns173 0 -0.00104573009802
Ca175 ns175 0 1e-012
Ca176 ns176 0 1e-012
Ra175 ns175 0 13175.427314
Ra176 ns176 0 13175.427314
Ga175 ns175 0 ns176 0 0.00113625598867
Ga176 ns176 0 ns175 0 -0.00113625598867
Ca177 ns177 0 1e-012
Ra177 ns177 0 724.874060203
Ca178 ns178 0 1e-012
Ca179 ns179 0 1e-012
Ra178 ns178 0 10717.0108418
Ra179 ns179 0 10717.0108418
Ga178 ns178 0 ns179 0 0.00154213641468
Ga179 ns179 0 ns178 0 -0.00154213641468
Ca180 ns180 0 1e-012
Ca181 ns181 0 1e-012
Ra180 ns180 0 4276.21363051
Ra181 ns181 0 4276.21363051
Ga180 ns180 0 ns181 0 0.00174904219573
Ga181 ns181 0 ns180 0 -0.00174904219573
Ca182 ns182 0 1e-012
Ca183 ns183 0 1e-012
Ra182 ns182 0 6898.93457168
Ra183 ns183 0 6898.93457168
Ga182 ns182 0 ns183 0 0.00178553159633
Ga183 ns183 0 ns182 0 -0.00178553159633
Ca184 ns184 0 1e-012
Ca185 ns185 0 1e-012
Ra184 ns184 0 8829.57998465
Ra185 ns185 0 8829.57998465
Ga184 ns184 0 ns185 0 0.00194815607348
Ga185 ns185 0 ns184 0 -0.00194815607348
Ca186 ns186 0 1e-012
Ca187 ns187 0 1e-012
Ra186 ns186 0 6759.20618664
Ra187 ns187 0 6759.20618664
Ga186 ns186 0 ns187 0 0.00234293026349
Ga187 ns187 0 ns186 0 -0.00234293026349
Ca188 ns188 0 1e-012
Ca189 ns189 0 1e-012
Ra188 ns188 0 2743.24335304
Ra189 ns189 0 2743.24335304
Ga188 ns188 0 ns189 0 -0.00259146234297
Ga189 ns189 0 ns188 0 0.00259146234297
Ca190 ns190 0 1e-012
Ca191 ns191 0 1e-012
Ra190 ns190 0 4741.47586557
Ra191 ns191 0 4741.47586557
Ga190 ns190 0 ns191 0 0.00263254368951
Ga191 ns191 0 ns190 0 -0.00263254368951
Ca192 ns192 0 1e-012
Ca193 ns193 0 1e-012
Ra192 ns192 0 6687.8825643
Ra193 ns193 0 6687.8825643
Ga192 ns192 0 ns193 0 0.00288992413897
Ga193 ns193 0 ns192 0 -0.00288992413897
Ca194 ns194 0 1e-012
Ca195 ns195 0 1e-012
Ra194 ns194 0 2953.7660294
Ra195 ns195 0 2953.7660294
Ga194 ns194 0 ns195 0 -0.00323057842684
Ga195 ns195 0 ns194 0 0.00323057842684
Ca196 ns196 0 1e-012
Ca197 ns197 0 1e-012
Ra196 ns196 0 5845.40758255
Ra197 ns197 0 5845.40758255
Ga196 ns196 0 ns197 0 0.0032524931721
Ga197 ns197 0 ns196 0 -0.0032524931721
Ca198 ns198 0 1e-012
Ca199 ns199 0 1e-012
Ra198 ns198 0 3774.65458885
Ra199 ns199 0 3774.65458885
Ga198 ns198 0 ns199 0 -0.00365820606373
Ga199 ns199 0 ns198 0 0.00365820606373
Ca200 ns200 0 1e-012
Ca201 ns201 0 1e-012
Ra200 ns200 0 3796.25928773
Ra201 ns201 0 3796.25928773
Ga200 ns200 0 ns201 0 0.00378923462227
Ga201 ns201 0 ns200 0 -0.00378923462227
Ca202 ns202 0 1e-012
Ca203 ns203 0 1e-012
Ra202 ns202 0 2692.51224101
Ra203 ns203 0 2692.51224101
Ga202 ns202 0 ns203 0 -0.00389318661825
Ga203 ns203 0 ns202 0 0.00389318661825
Ca204 ns204 0 1e-012
Ca205 ns205 0 1e-012
Ra204 ns204 0 5136.04873773
Ra205 ns205 0 5136.04873773
Ga204 ns204 0 ns205 0 0.00429895833274
Ga205 ns205 0 ns204 0 -0.00429895833274
Ca206 ns206 0 1e-012
Ca207 ns207 0 1e-012
Ra206 ns206 0 3216.07913391
Ra207 ns207 0 3216.07913391
Ga206 ns206 0 ns207 0 0.00444733034504
Ga207 ns207 0 ns206 0 -0.00444733034504
Ca208 ns208 0 1e-012
Ca209 ns209 0 1e-012
Ra208 ns208 0 4276.21698172
Ra209 ns209 0 4276.21698172
Ga208 ns208 0 ns209 0 0.00477646399499
Ga209 ns209 0 ns208 0 -0.00477646399499
Ca210 ns210 0 1e-012
Ca211 ns211 0 1e-012
Ra210 ns210 0 4365.41657854
Ra211 ns211 0 4365.41657854
Ga210 ns210 0 ns211 0 0.00495284410519
Ga211 ns211 0 ns210 0 -0.00495284410519
Ca212 ns212 0 1e-012
Ca213 ns213 0 1e-012
Ra212 ns212 0 4021.10594552
Ra213 ns213 0 4021.10594552
Ga212 ns212 0 ns213 0 0.0052679588991
Ga213 ns213 0 ns212 0 -0.0052679588991
Ca214 ns214 0 1e-012
Ca215 ns215 0 1e-012
Ra214 ns214 0 3166.65257129
Ra215 ns215 0 3166.65257129
Ga214 ns214 0 ns215 0 0.00550772062644
Ga215 ns215 0 ns214 0 -0.00550772062644
Ca216 ns216 0 1e-012
Ca217 ns217 0 1e-012
Ra216 ns216 0 3439.26242085
Ra217 ns217 0 3439.26242085
Ga216 ns216 0 ns217 0 0.00578346218525
Ga217 ns217 0 ns216 0 -0.00578346218525
Ca218 ns218 0 1e-012
Ca219 ns219 0 1e-012
Ra218 ns218 0 4006.88571172
Ra219 ns219 0 4006.88571172
Ga218 ns218 0 ns219 0 -0.00607250286115
Ga219 ns219 0 ns218 0 0.00607250286115
Ca220 ns220 0 1e-012
Ca221 ns221 0 1e-012
Ra220 ns220 0 3442.4450392
Ra221 ns221 0 3442.4450392
Ga220 ns220 0 ns221 0 0.00630036847671
Ga221 ns221 0 ns220 0 -0.00630036847671
Ca222 ns222 0 1e-012
Ra222 ns222 0 148.541678255
Ca223 ns223 0 1e-012
Ra223 ns223 0 167332707.549
Ca224 ns224 0 1e-012
Ra224 ns224 0 4396731.35459
Ca225 ns225 0 1e-012
Ra225 ns225 0 3480552.36065
Ca226 ns226 0 1e-012
Ra226 ns226 0 721499.929843
Ca227 ns227 0 1e-012
Ca228 ns228 0 1e-012
Ra227 ns227 0 22827822.174
Ra228 ns228 0 22827822.174
Ga227 ns227 0 ns228 0 -1.4005511538e-006
Ga228 ns228 0 ns227 0 1.4005511538e-006
Ca229 ns229 0 1e-012
Ra229 ns229 0 273539.620499
Ca230 ns230 0 1e-012
Ra230 ns230 0 176435.320864
Ca231 ns231 0 1e-012
Ra231 ns231 0 116771.572364
Ca232 ns232 0 1e-012
Ra232 ns232 0 43392.7063805
Ca233 ns233 0 1e-012
Ca234 ns234 0 1e-012
Ra233 ns233 0 137718.927567
Ra234 ns234 0 137718.927567
Ga233 ns233 0 ns234 0 0.000154421801373
Ga234 ns234 0 ns233 0 -0.000154421801373
Ca235 ns235 0 1e-012
Ca236 ns236 0 1e-012
Ra235 ns235 0 67828.0957284
Ra236 ns236 0 67828.0957284
Ga235 ns235 0 ns236 0 0.000229685377946
Ga236 ns236 0 ns235 0 -0.000229685377946
Ca237 ns237 0 1e-012
Ca238 ns238 0 1e-012
Ra237 ns237 0 33764.9807971
Ra238 ns238 0 33764.9807971
Ga237 ns237 0 ns238 0 0.000367779023977
Ga238 ns238 0 ns237 0 -0.000367779023977
Ca239 ns239 0 1e-012
Ca240 ns240 0 1e-012
Ra239 ns239 0 49452.6107741
Ra240 ns240 0 49452.6107741
Ga239 ns239 0 ns240 0 0.000396096289803
Ga240 ns240 0 ns239 0 -0.000396096289803
Ca241 ns241 0 1e-012
Ca242 ns242 0 1e-012
Ra241 ns241 0 24829.2626737
Ra242 ns242 0 24829.2626737
Ga241 ns241 0 ns242 0 0.000728407039408
Ga242 ns242 0 ns241 0 -0.000728407039408
Ca243 ns243 0 1e-012
Ca244 ns244 0 1e-012
Ra243 ns243 0 1328.42586313
Ra244 ns244 0 1328.42586313
Ga243 ns243 0 ns244 0 4.587156757e-005
Ga244 ns244 0 ns243 0 -4.587156757e-005
Ca245 ns245 0 1e-012
Ca246 ns246 0 1e-012
Ra245 ns245 0 18776.814525
Ra246 ns246 0 18776.814525
Ga245 ns245 0 ns246 0 0.000814377293503
Ga246 ns246 0 ns245 0 -0.000814377293503
Ca247 ns247 0 1e-012
Ca248 ns248 0 1e-012
Ra247 ns247 0 11827.1856293
Ra248 ns248 0 11827.1856293
Ga247 ns247 0 ns248 0 0.00104573009802
Ga248 ns248 0 ns247 0 -0.00104573009802
Ca249 ns249 0 1e-012
Ca250 ns250 0 1e-012
Ra249 ns249 0 13175.427314
Ra250 ns250 0 13175.427314
Ga249 ns249 0 ns250 0 0.00113625598867
Ga250 ns250 0 ns249 0 -0.00113625598867
Ca251 ns251 0 1e-012
Ra251 ns251 0 724.874060203
Ca252 ns252 0 1e-012
Ca253 ns253 0 1e-012
Ra252 ns252 0 10717.0108418
Ra253 ns253 0 10717.0108418
Ga252 ns252 0 ns253 0 0.00154213641468
Ga253 ns253 0 ns252 0 -0.00154213641468
Ca254 ns254 0 1e-012
Ca255 ns255 0 1e-012
Ra254 ns254 0 4276.21363051
Ra255 ns255 0 4276.21363051
Ga254 ns254 0 ns255 0 0.00174904219573
Ga255 ns255 0 ns254 0 -0.00174904219573
Ca256 ns256 0 1e-012
Ca257 ns257 0 1e-012
Ra256 ns256 0 6898.93457168
Ra257 ns257 0 6898.93457168
Ga256 ns256 0 ns257 0 0.00178553159633
Ga257 ns257 0 ns256 0 -0.00178553159633
Ca258 ns258 0 1e-012
Ca259 ns259 0 1e-012
Ra258 ns258 0 8829.57998465
Ra259 ns259 0 8829.57998465
Ga258 ns258 0 ns259 0 0.00194815607348
Ga259 ns259 0 ns258 0 -0.00194815607348
Ca260 ns260 0 1e-012
Ca261 ns261 0 1e-012
Ra260 ns260 0 6759.20618664
Ra261 ns261 0 6759.20618664
Ga260 ns260 0 ns261 0 0.00234293026349
Ga261 ns261 0 ns260 0 -0.00234293026349
Ca262 ns262 0 1e-012
Ca263 ns263 0 1e-012
Ra262 ns262 0 2743.24335304
Ra263 ns263 0 2743.24335304
Ga262 ns262 0 ns263 0 -0.00259146234297
Ga263 ns263 0 ns262 0 0.00259146234297
Ca264 ns264 0 1e-012
Ca265 ns265 0 1e-012
Ra264 ns264 0 4741.47586557
Ra265 ns265 0 4741.47586557
Ga264 ns264 0 ns265 0 0.00263254368951
Ga265 ns265 0 ns264 0 -0.00263254368951
Ca266 ns266 0 1e-012
Ca267 ns267 0 1e-012
Ra266 ns266 0 6687.8825643
Ra267 ns267 0 6687.8825643
Ga266 ns266 0 ns267 0 0.00288992413897
Ga267 ns267 0 ns266 0 -0.00288992413897
Ca268 ns268 0 1e-012
Ca269 ns269 0 1e-012
Ra268 ns268 0 2953.7660294
Ra269 ns269 0 2953.7660294
Ga268 ns268 0 ns269 0 -0.00323057842684
Ga269 ns269 0 ns268 0 0.00323057842684
Ca270 ns270 0 1e-012
Ca271 ns271 0 1e-012
Ra270 ns270 0 5845.40758255
Ra271 ns271 0 5845.40758255
Ga270 ns270 0 ns271 0 0.0032524931721
Ga271 ns271 0 ns270 0 -0.0032524931721
Ca272 ns272 0 1e-012
Ca273 ns273 0 1e-012
Ra272 ns272 0 3774.65458885
Ra273 ns273 0 3774.65458885
Ga272 ns272 0 ns273 0 -0.00365820606373
Ga273 ns273 0 ns272 0 0.00365820606373
Ca274 ns274 0 1e-012
Ca275 ns275 0 1e-012
Ra274 ns274 0 3796.25928773
Ra275 ns275 0 3796.25928773
Ga274 ns274 0 ns275 0 0.00378923462227
Ga275 ns275 0 ns274 0 -0.00378923462227
Ca276 ns276 0 1e-012
Ca277 ns277 0 1e-012
Ra276 ns276 0 2692.51224101
Ra277 ns277 0 2692.51224101
Ga276 ns276 0 ns277 0 -0.00389318661825
Ga277 ns277 0 ns276 0 0.00389318661825
Ca278 ns278 0 1e-012
Ca279 ns279 0 1e-012
Ra278 ns278 0 5136.04873773
Ra279 ns279 0 5136.04873773
Ga278 ns278 0 ns279 0 0.00429895833274
Ga279 ns279 0 ns278 0 -0.00429895833274
Ca280 ns280 0 1e-012
Ca281 ns281 0 1e-012
Ra280 ns280 0 3216.07913391
Ra281 ns281 0 3216.07913391
Ga280 ns280 0 ns281 0 0.00444733034504
Ga281 ns281 0 ns280 0 -0.00444733034504
Ca282 ns282 0 1e-012
Ca283 ns283 0 1e-012
Ra282 ns282 0 4276.21698172
Ra283 ns283 0 4276.21698172
Ga282 ns282 0 ns283 0 0.00477646399499
Ga283 ns283 0 ns282 0 -0.00477646399499
Ca284 ns284 0 1e-012
Ca285 ns285 0 1e-012
Ra284 ns284 0 4365.41657854
Ra285 ns285 0 4365.41657854
Ga284 ns284 0 ns285 0 0.00495284410519
Ga285 ns285 0 ns284 0 -0.00495284410519
Ca286 ns286 0 1e-012
Ca287 ns287 0 1e-012
Ra286 ns286 0 4021.10594552
Ra287 ns287 0 4021.10594552
Ga286 ns286 0 ns287 0 0.0052679588991
Ga287 ns287 0 ns286 0 -0.0052679588991
Ca288 ns288 0 1e-012
Ca289 ns289 0 1e-012
Ra288 ns288 0 3166.65257129
Ra289 ns289 0 3166.65257129
Ga288 ns288 0 ns289 0 0.00550772062644
Ga289 ns289 0 ns288 0 -0.00550772062644
Ca290 ns290 0 1e-012
Ca291 ns291 0 1e-012
Ra290 ns290 0 3439.26242085
Ra291 ns291 0 3439.26242085
Ga290 ns290 0 ns291 0 0.00578346218525
Ga291 ns291 0 ns290 0 -0.00578346218525
Ca292 ns292 0 1e-012
Ca293 ns293 0 1e-012
Ra292 ns292 0 4006.88571172
Ra293 ns293 0 4006.88571172
Ga292 ns292 0 ns293 0 -0.00607250286115
Ga293 ns293 0 ns292 0 0.00607250286115
Ca294 ns294 0 1e-012
Ca295 ns295 0 1e-012
Ra294 ns294 0 3442.4450392
Ra295 ns295 0 3442.4450392
Ga294 ns294 0 ns295 0 0.00630036847671
Ga295 ns295 0 ns294 0 -0.00630036847671
Ca296 ns296 0 1e-012
Ra296 ns296 0 148.541678255

Gb1_1 ns1 0 ni1 0 5.9761179667e-009
Gb2_1 ns2 0 ni1 0 2.27441687779e-007
Gb3_1 ns3 0 ni1 0 2.87310718639e-007
Gb4_1 ns4 0 ni1 0 1.38600152077e-006
Gb5_1 ns5 0 ni1 0 1.40192131626e-006
Gb7_1 ns7 0 ni1 0 3.65577753664e-006
Gb8_1 ns8 0 ni1 0 5.66779936752e-006
Gb9_1 ns9 0 ni1 0 8.56372813826e-006
Gb10_1 ns10 0 ni1 0 2.30453475575e-005
Gb11_1 ns11 0 ni1 0 0.000154763233294
Gb13_1 ns13 0 ni1 0 0.000230631718394
Gb15_1 ns15 0 ni1 0 0.000370163978104
Gb17_1 ns17 0 ni1 0 0.0003971286251
Gb19_1 ns19 0 ni1 0 0.000730633926612
Gb21_1 ns21 0 ni1 0 0.000755565924298
Gb23_1 ns23 0 ni1 0 0.000817860109343
Gb25_1 ns25 0 ni1 0 0.00105256634218
Gb27_1 ns27 0 ni1 0 0.00114132583033
Gb29_1 ns29 0 ni1 0 0.00137954998654
Gb30_1 ns30 0 ni1 0 0.00154778227159
Gb32_1 ns32 0 ni1 0 0.00178030881505
Gb34_1 ns34 0 ni1 0 0.00179729866825
Gb36_1 ns36 0 ni1 0 0.00195474016961
Gb38_1 ns38 0 ni1 0 0.00235227246539
Gb40_1 ns40 0 ni1 0 0.00264273979375
Gb42_1 ns42 0 ni1 0 0.00264944021173
Gb44_1 ns44 0 ni1 0 0.00289766049201
Gb46_1 ns46 0 ni1 0 0.00326605711298
Gb48_1 ns48 0 ni1 0 0.00326149133827
Gb50_1 ns50 0 ni1 0 0.00367739175281
Gb52_1 ns52 0 ni1 0 0.00380754666396
Gb54_1 ns54 0 ni1 0 0.00392861729153
Gb56_1 ns56 0 ni1 0 0.00430777650324
Gb58_1 ns58 0 ni1 0 0.00446906972522
Gb60_1 ns60 0 ni1 0 0.00478791316552
Gb62_1 ns62 0 ni1 0 0.00496343893427
Gb64_1 ns64 0 ni1 0 0.00527969885838
Gb66_1 ns66 0 ni1 0 0.00552582682431
Gb68_1 ns68 0 ni1 0 0.00579807996692
Gb70_1 ns70 0 ni1 0 0.00608275981405
Gb72_1 ns72 0 ni1 0 0.00631376215983
Gb74_1 ns74 0 ni1 0 0.00673211728686
Gb75_2 ns75 0 ni2 0 5.9761179667e-009
Gb76_2 ns76 0 ni2 0 2.27441687779e-007
Gb77_2 ns77 0 ni2 0 2.87310718639e-007
Gb78_2 ns78 0 ni2 0 1.38600152077e-006
Gb79_2 ns79 0 ni2 0 1.40192131626e-006
Gb81_2 ns81 0 ni2 0 3.65577753664e-006
Gb82_2 ns82 0 ni2 0 5.66779936752e-006
Gb83_2 ns83 0 ni2 0 8.56372813826e-006
Gb84_2 ns84 0 ni2 0 2.30453475575e-005
Gb85_2 ns85 0 ni2 0 0.000154763233294
Gb87_2 ns87 0 ni2 0 0.000230631718394
Gb89_2 ns89 0 ni2 0 0.000370163978104
Gb91_2 ns91 0 ni2 0 0.0003971286251
Gb93_2 ns93 0 ni2 0 0.000730633926612
Gb95_2 ns95 0 ni2 0 0.000755565924298
Gb97_2 ns97 0 ni2 0 0.000817860109343
Gb99_2 ns99 0 ni2 0 0.00105256634218
Gb101_2 ns101 0 ni2 0 0.00114132583033
Gb103_2 ns103 0 ni2 0 0.00137954998654
Gb104_2 ns104 0 ni2 0 0.00154778227159
Gb106_2 ns106 0 ni2 0 0.00178030881505
Gb108_2 ns108 0 ni2 0 0.00179729866825
Gb110_2 ns110 0 ni2 0 0.00195474016961
Gb112_2 ns112 0 ni2 0 0.00235227246539
Gb114_2 ns114 0 ni2 0 0.00264273979375
Gb116_2 ns116 0 ni2 0 0.00264944021173
Gb118_2 ns118 0 ni2 0 0.00289766049201
Gb120_2 ns120 0 ni2 0 0.00326605711298
Gb122_2 ns122 0 ni2 0 0.00326149133827
Gb124_2 ns124 0 ni2 0 0.00367739175281
Gb126_2 ns126 0 ni2 0 0.00380754666396
Gb128_2 ns128 0 ni2 0 0.00392861729153
Gb130_2 ns130 0 ni2 0 0.00430777650324
Gb132_2 ns132 0 ni2 0 0.00446906972522
Gb134_2 ns134 0 ni2 0 0.00478791316552
Gb136_2 ns136 0 ni2 0 0.00496343893427
Gb138_2 ns138 0 ni2 0 0.00527969885838
Gb140_2 ns140 0 ni2 0 0.00552582682431
Gb142_2 ns142 0 ni2 0 0.00579807996692
Gb144_2 ns144 0 ni2 0 0.00608275981405
Gb146_2 ns146 0 ni2 0 0.00631376215983
Gb148_2 ns148 0 ni2 0 0.00673211728686
Gb149_3 ns149 0 ni3 0 5.9761179667e-009
Gb150_3 ns150 0 ni3 0 2.27441687779e-007
Gb151_3 ns151 0 ni3 0 2.87310718639e-007
Gb152_3 ns152 0 ni3 0 1.38600152077e-006
Gb153_3 ns153 0 ni3 0 1.40192131626e-006