**************************************************
* Manufacturer:           Wurth Elektronik 
* Kinds:                  Line Filter 
* Matchcode:              WE-CLFS
* Library Type:           LTspice
* Version:                rev22a
* Created/modified by:    Ella      
* Date and Time:          2022-05-23
* Team:                   eiSos EDA Service  
* Contact:                libraries@we-online.com
**************************************************
* Copyright(C) 2022 Würth Elektronik eiSos GmbH & Co. KG
* All Rights Reserved.
**************************************************
* Disclaimer: While Würth Elektronik eiSos has made every reasonable effort to ensure the accuracy
* of the simulation models provided, Würth Elektronik eiSos does not guarantee the exemption of error on
* the simulation models, nor does Würth Elektronik eiSos guarantee that the simulation model is current.
* Würth Elektronik eiSos reserves the right to make any adjustments at any time without notice.
* Würth Elektronik eiSos expressly disclaims all implied warranties regarding this simulation model.
**************************************************
* BEGIN ANSOFT HEADER
* node 1    Port1
* node 2    Port2
* node 3    Port3
* node 4    Port4
*     Date: Mon Apr 23 14:42:43 2018
*    Notes: Frequency range: 10000 to 1e+009 Hz, 801 points
*         : Maximum number of poles: 10000
*         : S-Matrix fitting error tolerance: 0.005
*         : Causality check tolerance: auto
*         : Passivity enforcement: on (by iterated fitting)
*         : Causality enforcement: off
*         : Fitting method: TWA
*         : Matrix fitting: By entire matrix
*         : Ensure Z-parameter accuracy: on
*         : Relative error control: off
*         : Common ground option: on
*         : Final fitting error: 0.00565634
*         : Final model order: 296
* END ANSOFT HEADER

************************************************************************************************************
*****************************************----810913006----**************************************************
************************************************************************************************************
************************************************************************************************************

.subckt 810913006 0 1 2 3 4
Vam1 1 n2 dc 0
Rport1 n2 0 50
Vam2 2 n4 dc 0
Rport2 n4 0 50
Vam3 3 n6 dc 0
Rport3 n6 0 50
Vam4 4 n8 dc 0
Rport4 n8 0 50

Fi1 0 ni1 Vam1 50
Gi1 0 ni1 1 0 1
Rt1 ni1 0 1
Fi2 0 ni2 Vam2 50
Gi2 0 ni2 2 0 1
Rt2 ni2 0 1
Fi3 0 ni3 Vam3 50
Gi3 0 ni3 3 0 1
Rt3 ni3 0 1
Fi4 0 ni4 Vam4 50
Gi4 0 ni4 4 0 1
Rt4 ni4 0 1

Ca1 ns1 0 1e-012
Ca2 ns2 0 1e-012
Ra1 ns1 0 94024392.4201
Ra2 ns2 0 94024392.4201
Ga1 ns1 0 ns2 0 -5.84380592127e-009
Ga2 ns2 0 ns1 0 5.84380592127e-009
Ca3 ns3 0 1e-012
Ca4 ns4 0 1e-012
Ra3 ns3 0 22960050.3431
Ra4 ns4 0 22960050.3431
Ga3 ns3 0 ns4 0 -1.62784325161e-007
Ga4 ns4 0 ns3 0 1.62784325161e-007
Ca5 ns5 0 1e-012
Ca6 ns6 0 1e-012
Ra5 ns5 0 31514616.3031
Ra6 ns6 0 31514616.3031
Ga5 ns5 0 ns6 0 -3.61696403243e-007
Ga6 ns6 0 ns5 0 3.61696403243e-007
Ca7 ns7 0 1e-012
Ca8 ns8 0 1e-012
Ra7 ns7 0 25412439.4592
Ra8 ns8 0 25412439.4592
Ga7 ns7 0 ns8 0 -5.90882403352e-007
Ga8 ns8 0 ns7 0 5.90882403352e-007
Ca9 ns9 0 1e-012
Ra9 ns9 0 1419609.61173
Ca10 ns10 0 1e-012
Ra10 ns10 0 193487.247398
Ca11 ns11 0 1e-012
Ca12 ns12 0 1e-012
Ra11 ns11 0 1948413.03745
Ra12 ns12 0 1948413.03745
Ga11 ns11 0 ns12 0 -1.87925706955e-005
Ga12 ns12 0 ns11 0 1.87925706955e-005
Ca13 ns13 0 1e-012
Ra13 ns13 0 21861.9103663
Ca14 ns14 0 1e-012
Ca15 ns15 0 1e-012
Ra14 ns14 0 39889.4572857
Ra15 ns15 0 39889.4572857
Ga14 ns14 0 ns15 0 -0.000355056697695
Ga15 ns15 0 ns14 0 0.000355056697695
Ca16 ns16 0 1e-012
Ca17 ns17 0 1e-012
Ra16 ns16 0 14385.7251436
Ra17 ns17 0 14385.7251436
Ga16 ns16 0 ns17 0 -0.000434975025058
Ga17 ns17 0 ns16 0 0.000434975025058
Ca18 ns18 0 1e-012
Ca19 ns19 0 1e-012
Ra18 ns18 0 14464.7936605
Ra19 ns19 0 14464.7936605
Ga18 ns18 0 ns19 0 -0.000462055837028
Ga19 ns19 0 ns18 0 0.000462055837028
Ca20 ns20 0 1e-012
Ra20 ns20 0 1582.1208486
Ca21 ns21 0 1e-012
Ca22 ns22 0 1e-012
Ra21 ns21 0 11160.6744664
Ra22 ns22 0 11160.6744664
Ga21 ns21 0 ns22 0 -0.000722237432112
Ga22 ns22 0 ns21 0 0.000722237432112
Ca23 ns23 0 1e-012
Ca24 ns24 0 1e-012
Ra23 ns23 0 1687.63913822
Ra24 ns24 0 1687.63913822
Ga23 ns23 0 ns24 0 -0.000645750729403
Ga24 ns24 0 ns23 0 0.000645750729403
Ca25 ns25 0 1e-012
Ca26 ns26 0 1e-012
Ra25 ns25 0 94024392.4201
Ra26 ns26 0 94024392.4201
Ga25 ns25 0 ns26 0 -5.84380592127e-009
Ga26 ns26 0 ns25 0 5.84380592127e-009
Ca27 ns27 0 1e-012
Ca28 ns28 0 1e-012
Ra27 ns27 0 22960050.3431
Ra28 ns28 0 22960050.3431
Ga27 ns27 0 ns28 0 -1.62784325161e-007
Ga28 ns28 0 ns27 0 1.62784325161e-007
Ca29 ns29 0 1e-012
Ca30 ns30 0 1e-012
Ra29 ns29 0 31514616.3031
Ra30 ns30 0 31514616.3031
Ga29 ns29 0 ns30 0 -3.61696403243e-007
Ga30 ns30 0 ns29 0 3.61696403243e-007
Ca31 ns31 0 1e-012
Ca32 ns32 0 1e-012
Ra31 ns31 0 25412439.4592
Ra32 ns32 0 25412439.4592
Ga31 ns31 0 ns32 0 -5.90882403352e-007
Ga32 ns32 0 ns31 0 5.90882403352e-007
Ca33 ns33 0 1e-012
Ra33 ns33 0 1419609.61173
Ca34 ns34 0 1e-012
Ra34 ns34 0 193487.247398
Ca35 ns35 0 1e-012
Ca36 ns36 0 1e-012
Ra35 ns35 0 1948413.03745
Ra36 ns36 0 1948413.03745
Ga35 ns35 0 ns36 0 -1.87925706955e-005
Ga36 ns36 0 ns35 0 1.87925706955e-005
Ca37 ns37 0 1e-012
Ra37 ns37 0 21861.9103663
Ca38 ns38 0 1e-012
Ca39 ns39 0 1e-012
Ra38 ns38 0 39889.4572857
Ra39 ns39 0 39889.4572857
Ga38 ns38 0 ns39 0 -0.000355056697695
Ga39 ns39 0 ns38 0 0.000355056697695
Ca40 ns40 0 1e-012
Ca41 ns41 0 1e-012
Ra40 ns40 0 14385.7251436
Ra41 ns41 0 14385.7251436
Ga40 ns40 0 ns41 0 -0.000434975025058
Ga41 ns41 0 ns40 0 0.000434975025058
Ca42 ns42 0 1e-012
Ca43 ns43 0 1e-012
Ra42 ns42 0 14464.7936605
Ra43 ns43 0 14464.7936605
Ga42 ns42 0 ns43 0 -0.000462055837028
Ga43 ns43 0 ns42 0 0.000462055837028
Ca44 ns44 0 1e-012
Ra44 ns44 0 1582.1208486
Ca45 ns45 0 1e-012
Ca46 ns46 0 1e-012
Ra45 ns45 0 11160.6744664
Ra46 ns46 0 11160.6744664
Ga45 ns45 0 ns46 0 -0.000722237432112
Ga46 ns46 0 ns45 0 0.000722237432112
Ca47 ns47 0 1e-012
Ca48 ns48 0 1e-012
Ra47 ns47 0 1687.63913822
Ra48 ns48 0 1687.63913822
Ga47 ns47 0 ns48 0 -0.000645750729403
Ga48 ns48 0 ns47 0 0.000645750729403
Ca49 ns49 0 1e-012
Ca50 ns50 0 1e-012
Ra49 ns49 0 94024392.4201
Ra50 ns50 0 94024392.4201
Ga49 ns49 0 ns50 0 -5.84380592127e-009
Ga50 ns50 0 ns49 0 5.84380592127e-009
Ca51 ns51 0 1e-012
Ca52 ns52 0 1e-012
Ra51 ns51 0 22960050.3431
Ra52 ns52 0 22960050.3431
Ga51 ns51 0 ns52 0 -1.62784325161e-007
Ga52 ns52 0 ns51 0 1.62784325161e-007
Ca53 ns53 0 1e-012
Ca54 ns54 0 1e-012
Ra53 ns53 0 31514616.3031
Ra54 ns54 0 31514616.3031
Ga53 ns53 0 ns54 0 -3.61696403243e-007
Ga54 ns54 0 ns53 0 3.61696403243e-007
Ca55 ns55 0 1e-012
Ca56 ns56 0 1e-012
Ra55 ns55 0 25412439.4592
Ra56 ns56 0 25412439.4592
Ga55 ns55 0 ns56 0 -5.90882403352e-007
Ga56 ns56 0 ns55 0 5.90882403352e-007
Ca57 ns57 0 1e-012
Ra57 ns57 0 1419609.61173
Ca58 ns58 0 1e-012
Ra58 ns58 0 193487.247398
Ca59 ns59 0 1e-012
Ca60 ns60 0 1e-012
Ra59 ns59 0 1948413.03745
Ra60 ns60 0 1948413.03745
Ga59 ns59 0 ns60 0 -1.87925706955e-005
Ga60 ns60 0 ns59 0 1.87925706955e-005
Ca61 ns61 0 1e-012
Ra61 ns61 0 21861.9103663
Ca62 ns62 0 1e-012
Ca63 ns63 0 1e-012
Ra62 ns62 0 39889.4572857
Ra63 ns63 0 39889.4572857
Ga62 ns62 0 ns63 0 -0.000355056697695
Ga63 ns63 0 ns62 0 0.000355056697695
Ca64 ns64 0 1e-012
Ca65 ns65 0 1e-012
Ra64 ns64 0 14385.7251436
Ra65 ns65 0 14385.7251436
Ga64 ns64 0 ns65 0 -0.000434975025058
Ga65 ns65 0 ns64 0 0.000434975025058
Ca66 ns66 0 1e-012
Ca67 ns67 0 1e-012
Ra66 ns66 0 14464.7936605
Ra67 ns67 0 14464.7936605
Ga66 ns66 0 ns67 0 -0.000462055837028
Ga67 ns67 0 ns66 0 0.000462055837028
Ca68 ns68 0 1e-012
Ra68 ns68 0 1582.1208486
Ca69 ns69 0 1e-012
Ca70 ns70 0 1e-012
Ra69 ns69 0 11160.6744664
Ra70 ns70 0 11160.6744664
Ga69 ns69 0 ns70 0 -0.000722237432112
Ga70 ns70 0 ns69 0 0.000722237432112
Ca71 ns71 0 1e-012
Ca72 ns72 0 1e-012
Ra71 ns71 0 1687.63913822
Ra72 ns72 0 1687.63913822
Ga71 ns71 0 ns72 0 -0.000645750729403
Ga72 ns72 0 ns71 0 0.000645750729403
Ca73 ns73 0 1e-012
Ca74 ns74 0 1e-012
Ra73 ns73 0 94024392.4201
Ra74 ns74 0 94024392.4201
Ga73 ns73 0 ns74 0 -5.84380592127e-009
Ga74 ns74 0 ns73 0 5.84380592127e-009
Ca75 ns75 0 1e-012
Ca76 ns76 0 1e-012
Ra75 ns75 0 22960050.3431
Ra76 ns76 0 22960050.3431
Ga75 ns75 0 ns76 0 -1.62784325161e-007
Ga76 ns76 0 ns75 0 1.62784325161e-007
Ca77 ns77 0 1e-012
Ca78 ns78 0 1e-012
Ra77 ns77 0 31514616.3031
Ra78 ns78 0 31514616.3031
Ga77 ns77 0 ns78 0 -3.61696403243e-007
Ga78 ns78 0 ns77 0 3.61696403243e-007
Ca79 ns79 0 1e-012
Ca80 ns80 0 1e-012
Ra79 ns79 0 25412439.4592
Ra80 ns80 0 25412439.4592
Ga79 ns79 0 ns80 0 -5.90882403352e-007
Ga80 ns80 0 ns79 0 5.90882403352e-007
Ca81 ns81 0 1e-012
Ra81 ns81 0 1419609.61173
Ca82 ns82 0 1e-012
Ra82 ns82 0 193487.247398
Ca83 ns83 0 1e-012
Ca84 ns84 0 1e-012
Ra83 ns83 0 1948413.03745
Ra84 ns84 0 1948413.03745
Ga83 ns83 0 ns84 0 -1.87925706955e-005
Ga84 ns84 0 ns83 0 1.87925706955e-005
Ca85 ns85 0 1e-012
Ra85 ns85 0 21861.9103663
Ca86 ns86 0 1e-012
Ca87 ns87 0 1e-012
Ra86 ns86 0 39889.4572857
Ra87 ns87 0 39889.4572857
Ga86 ns86 0 ns87 0 -0.000355056697695
Ga87 ns87 0 ns86 0 0.000355056697695
Ca88 ns88 0 1e-012
Ca89 ns89 0 1e-012
Ra88 ns88 0 14385.7251436
Ra89 ns89 0 14385.7251436
Ga88 ns88 0 ns89 0 -0.000434975025058
Ga89 ns89 0 ns88 0 0.000434975025058
Ca90 ns90 0 1e-012
Ca91 ns91 0 1e-012
Ra90 ns90 0 14464.7936605
Ra91 ns91 0 14464.7936605
Ga90 ns90 0 ns91 0 -0.000462055837028
Ga91 ns91 0 ns90 0 0.000462055837028
Ca92 ns92 0 1e-012
Ra92 ns92 0 1582.1208486
Ca93 ns93 0 1e-012
Ca94 ns94 0 1e-012
Ra93 ns93 0 11160.6744664
Ra94 ns94 0 11160.6744664
Ga93 ns93 0 ns94 0 -0.000722237432112
Ga94 ns94 0 ns93 0 0.000722237432112
Ca95 ns95 0 1e-012
Ca96 ns96 0 1e-012
Ra95 ns95 0 1687.63913822
Ra96 ns96 0 1687.63913822
Ga95 ns95 0 ns96 0 -0.000645750729403
Ga96 ns96 0 ns95 0 0.000645750729403

Gb1_1 ns1 0 ni1 0 1.38464773773e-008
Gb3_1 ns3 0 ni1 0 1.7443743244e-007
Gb5_1 ns5 0 ni1 0 3.64480163063e-007
Gb7_1 ns7 0 ni1 0 5.93503036495e-007
Gb9_1 ns9 0 ni1 0 7.04419011914e-007
Gb10_1 ns10 0 ni1 0 5.16829927269e-006
Gb11_1 ns11 0 ni1 0 1.88065875883e-005
Gb13_1 ns13 0 ni1 0 4.57416567558e-005
Gb14_1 ns14 0 ni1 0 0.000356826749737
Gb16_1 ns16 0 ni1 0 0.000446083953302
Gb18_1 ns18 0 ni1 0 0.000472399659384
Gb20_1 ns20 0 ni1 0 0.00063206296844
Gb21_1 ns21 0 ni1 0 0.000733353191181
Gb23_1 ns23 0 ni1 0 0.00118947149207
Gb25_2 ns25 0 ni2 0 1.38464773773e-008
Gb27_2 ns27 0 ni2 0 1.7443743244e-007
Gb29_2 ns29 0 ni2 0 3.64480163063e-007
Gb31_2 ns31 0 ni2 0 5.93503036495e-007
Gb33_2 ns33 0 ni2 0 7.04419011914e-007
Gb34_2 ns34 0 ni2 0 5.16829927269e-006
Gb35_2 ns35 0 ni2 0 1.88065875883e-005
Gb37_2 ns37 0 ni2 0 4.57416567558e-005
Gb38_2 ns38 0 ni2 0 0.000356826749737
Gb40_2 ns40 0 ni2 0 0.000446083953302
Gb42_2 ns42 0 ni2 0 0.000472399659384
Gb44_2 ns44 0 ni2 0 0.00063206296844
Gb45_2 ns45 0 ni2 0 0.000733353191181
Gb47_2 ns47 0 ni2 0 0.00118947149207
Gb49_3 ns49 0 ni3 0 1.38464773773e-008
Gb51_3 ns51 0 ni3 0 1.7443743244e-007
Gb53_3 ns53 0 ni3 0 3.64480163063e-007
Gb55_3 ns55 0 ni3 0 5.93503036495e-007
Gb57_3 ns57 0 ni3 0 7.04419011914e-007
Gb58_3 ns58 0 ni3 0 5.16829927269e-006
Gb59_3 ns59 0 ni3 0 1.88065875883e-005
Gb61_3 ns61 0 ni3 0 4.57416567558e-005
Gb62_3 ns62 0 ni3 0 0.000356826749737
Gb64_3 ns64 0 ni3 0 0.000446083953302
Gb66_3 ns66 0 ni3 0 0.000472399659384
Gb68_3 ns68 0 ni3 0 0.00063206296844
Gb69_3 ns69 0 ni3 0 0.000733353191181
Gb71_3 ns71 0 ni3 0 0.00118947149207
Gb73_4 ns73 0 ni4 0 1.38464773773e-008
Gb75_4 ns75 0 ni4 0 1.7443743244e-007
Gb77_4 ns77 0 ni4 0 3.64480163063e-007
Gb79_4 ns79 0 ni4 0 5.93503036495e-007
Gb81_4 ns81 0 ni4 0 7.04419011914e-007
Gb82_4 ns82 0 ni4 0 5.16829927269e-006
Gb83_4 ns83 0 ni4 0 1.88065875883e-005
Gb85_4 ns85 0 ni4 0 4.57416567558e-005
Gb86_4 ns86 0 ni4 0 0.000356826749737
Gb88_4 ns88 0 ni4 0 0.000446083953302
Gb90_4 ns90 0 ni4 0 0.000472399659384
Gb92_4 ns92 0 ni4 0 0.00063206296844
Gb93_4 ns93 0 ni4 0 0.000733353191181
Gb95_4 ns95 0 ni4 0 0.00118947149207

Gc1_1 0 n2 ns1 0 -0.00777432456194
Gc1_2 0 n2 ns2 0 -0.00862502766264
Gc1_3 0 n2 ns3 0 0.000143825076579
Gc1_4 0 n2 ns4 0 0.000139380124006
Gc1_5 0 n2 ns5 0 -0.000610242031075
Gc1_6 0 n2 ns6 0 -2.20174142884e-005
Gc1_7 0 n2 ns7 0 -0.000132756558216
Gc1_8 0 n2 ns8 0 -8.18997955137e-006
Gc1_9 0 n2 ns9 0 0.000103279433269
Gc1_10 0 n2 ns10 0 4.08141612761e-005
Gc1_11 0 n2 ns11 0 -8.66381451369e-008
Gc1_12 0 n2 ns12 0 -3.26012287869e-007
Gc1_13 0 n2 ns13 0 4.78252390775e-006
Gc1_14 0 n2 ns14 0 -4.94606041865e-006
Gc1_15 0 n2 ns15 0 9.55372012462e-006
Gc1_16 0 n2 ns16 0 0.000121541345116
Gc1_17 0 n2 ns17 0 2.96409043591e-005
Gc1_18 0 n2 ns18 0 6.83084215185e-005
Gc1_19 0 n2 ns19 0 -4.79677613224e-005
Gc1_20 0 n2 ns20 0 0.00775466235338
Gc1_21 0 n2 ns21 0 0.001120738917
Gc1_22 0 n2 ns22 0 -7.24753082003e-005
Gc1_23 0 n2 ns23 0 -0.00242203208345
Gc1_24 0 n2 ns24 0 -0.00149195839767
Gc1_25 0 n2 ns25 0 -0.0124124847918
Gc1_26 0 n2 ns26 0 -0.00269084490878
Gc1_27 0 n2 ns27 0 0.000145782953341
Gc1_28 0 n2 ns28 0 0.000146115727193
Gc1_29 0 n2 ns29 0 0.000613325000537
Gc1_30 0 n2 ns30 0 2.02357124124e-005
Gc1_31 0 n2 ns31 0 -0.000128882965512
Gc1_32 0 n2 ns32 0 -7.89058371472e-006
Gc1_33 0 n2 ns33 0 -6.77731547404e-006
Gc1_34 0 n2 ns34 0 2.07162935956e-006
Gc1_35 0 n2 ns35 0 1.32326903962e-008
Gc1_36 0 n2 ns36 0 2.48398909349e-008
Gc1_37 0 n2 ns37 0 1.1367019798e-006
Gc1_38 0 n2 ns38 0 4.40958867077e-007
Gc1_39 0 n2 ns39 0 1.44704394022e-006
Gc1_40 0 n2 ns40 0 0.000133687881412
Gc1_41 0 n2 ns41 0 -4.70308030161e-005
Gc1_42 0 n2 ns42 0 -0.00014359038472
Gc1_43 0 n2 ns43 0 6.20281107857e-005
Gc1_44 0 n2 ns44 0 -0.000413825648923
Gc1_45 0 n2 ns45 0 0.000215771355703
Gc1_46 0 n2 ns46 0 -0.000147935349097
Gc1_47 0 n2 ns47 0 -0.000530101371221
Gc1_48 0 n2 ns48 0 -0.000538165901934
Gc1_49 0 n2 ns49 0 0.0124873753052
Gc1_50 0 n2 ns50 0 0.00239697884732
Gc1_51 0 n2 ns51 0 0.000143538965175
Gc1_52 0 n2 ns52 0 0.000144994802107
Gc1_53 0 n2 ns53 0 0.00060919846953
Gc1_54 0 n2 ns54 0 2.23966611746e-005
Gc1_55 0 n2 ns55 0 0.000132072434998
Gc1_56 0 n2 ns56 0 8.20614688991e-006
Gc1_57 0 n2 ns57 0 6.00710399913e-005
Gc1_58 0 n2 ns58 0 3.45178841198e-005
Gc1_59 0 n2 ns59 0 3.28963493945e-008
Gc1_60 0 n2 ns60 0 -2.69990033164e-007
Gc1_61 0 n2 ns61 0 -5.7918496868e-005
Gc1_62 0 n2 ns62 0 8.44177112275e-006
Gc1_63 0 n2 ns63 0 -5.91648730396e-006
Gc1_64 0 n2 ns64 0 8.22657889395e-005
Gc1_65 0 n2 ns65 0 4.64880758817e-006
Gc1_66 0 n2 ns66 0 9.42997134828e-005
Gc1_67 0 n2 ns67 0 -7.19665540565e-005
Gc1_68 0 n2 ns68 0 -0.0119366848064
Gc1_69 0 n2 ns69 0 0.000947033528637
Gc1_70 0 n2 ns70 0 -3.65007579724e-005
Gc1_71 0 n2 ns71 0 -0.00440437330489
Gc1_72 0 n2 ns72 0 0.00866123402961
Gc1_73 0 n2 ns73 0 0.00792896332022
Gc1_74 0 n2 ns74 0 0.0085210068438
Gc1_75 0 n2 ns75 0 0.000144740478517
Gc1_76 0 n2 ns76 0 0.000136654605114
Gc1_77 0 n2 ns77 0 -0.000612723362116
Gc1_78 0 n2 ns78 0 -2.08627172204e-005
Gc1_79 0 n2 ns79 0 0.000128529778327
Gc1_80 0 n2 ns80 0 7.8939552349e-006
Gc1_81 0 n2 ns81 0 1.71288587133e-005
Gc1_82 0 n2 ns82 0 -2.83219220022e-006
Gc1_83 0 n2 ns83 0 -2.79278707357e-008
Gc1_84 0 n2 ns84 0 -1.21394353507e-008
Gc1_85 0 n2 ns85 0 9.03606255119e-007
Gc1_86 0 n2 ns86 0 -1.36151786732e-006
Gc1_87 0 n2 ns87 0 -1.61700696595e-006
Gc1_88 0 n2 ns88 0 0.000139756064703
Gc1_89 0 n2 ns89 0 -6.50766521061e-005
Gc1_90 0 n2 ns90 0 -0.000136927586544
Gc1_91 0 n2 ns91 0 7.83198863797e-005
Gc1_92 0 n2 ns92 0 -0.000349200459615
Gc1_93 0 n2 ns93 0 0.000218640101939
Gc1_94 0 n2 ns94 0 -0.000153364777403
Gc1_95 0 n2 ns95 0 -0.000545593966463
Gc1_96 0 n2 ns96 0 -0.000482315724244
Gd1_1 0 n2 ni1 0 0.00721467186715
Gd1_2 0 n2 ni2 0 -0.00020287552696
Gd1_3 0 n2 ni3 0 -0.0045594294082
Gd1_4 0 n2 ni4 0 -0.000196213311168
Gc2_1 0 n4 ns1 0 -0.0124096231032
Gc2_2 0 n4 ns2 0 -0.00262792198212
Gc2_3 0 n4 ns3 0 0.000145947064665
Gc2_4 0 n4 ns4 0 0.000146082526634
Gc2_5 0 n4 ns5 0 0.000613346287015
Gc2_6 0 n4 ns6 0 2.02432377333e-005
Gc2_7 0 n4 ns7 0 -0.000128834255502
Gc2_8 0 n4 ns8 0 -7.88126215355e-006
Gc2_9 0 n4 ns9 0 -7.32744568657e-006
Gc2_10 0 n4 ns10 0 2.19459116215e-006
Gc2_11 0 n4 ns11 0 1.15645404385e-008
Gc2_12 0 n4 ns12 0 2.66960521417e-008
Gc2_13 0 n4 ns13 0 1.01858597493e-006
Gc2_14 0 n4 ns14 0 4.30017857077e-007
Gc2_15 0 n4 ns15 0 1.44434623211e-006
Gc2_16 0 n4 ns16 0 0.000133003386812
Gc2_17 0 n4 ns17 0 -4.73712908282e-005
Gc2_18 0 n4 ns18 0 -0.000142776234371
Gc2_19 0 n4 ns19 0 6.2211961148e-005
Gc2_20 0 n4 ns20 0 -0.000407675122783
Gc2_21 0 n4 ns21 0 0.000214783107781
Gc2_22 0 n4 ns22 0 -0.000147643037586
Gc2_23 0 n4 ns23 0 -0.000526055544051
Gc2_24 0 n4 ns24 0 -0.000531832327766
Gc2_25 0 n4 ns25 0 -0.00775679349219
Gc2_26 0 n4 ns26 0 -0.0082958215478
Gc2_27 0 n4 ns27 0 0.000143960846683
Gc2_28 0 n4 ns28 0 0.000132463788473
Gc2_29 0 n4 ns29 0 -0.000617522063051
Gc2_30 0 n4 ns30 0 -1.87613928904e-005
Gc2_31 0 n4 ns31 0 -0.000126340122034
Gc2_32 0 n4 ns32 0 -8.85270809953e-006
Gc2_33 0 n4 ns33 0 0.000124911121598
Gc2_34 0 n4 ns34 0 4.00169577509e-005
Gc2_35 0 n4 ns35 0 5.51185162185e-008
Gc2_36 0 n4 ns36 0 -2.01078289083e-007
Gc2_37 0 n4 ns37 0 1.78114010605e-005
Gc2_38 0 n4 ns38 0 -1.23425354992e-005
Gc2_39 0 n4 ns39 0 2.60445989727e-006
Gc2_40 0 n4 ns40 0 9.7540672759e-005
Gc2_41 0 n4 ns41 0 1.73629831436e-005
Gc2_42 0 n4 ns42 0 0.000210185765032
Gc2_43 0 n4 ns43 0 -6.34923889166e-005
Gc2_44 0 n4 ns44 0 0.00762046938907
Gc2_45 0 n4 ns45 0 0.00111737095892
Gc2_46 0 n4 ns46 0 -0.000183296402543
Gc2_47 0 n4 ns47 0 -0.00279612017923
Gc2_48 0 n4 ns48 0 -0.00174639984895
Gc2_49 0 n4 ns49 0 0.00793679506588
Gc2_50 0 n4 ns50 0 0.00849579645202
Gc2_51 0 n4 ns51 0 0.00014440362554
Gc2_52 0 n4 ns52 0 0.000135917347472
Gc2_53 0 n4 ns53 0 -0.000612958781727
Gc2_54 0 n4 ns54 0 -2.05458750085e-005
Gc2_55 0 n4 ns55 0 0.000128493663002
Gc2_56 0 n4 ns56 0 7.79541216288e-006
Gc2_57 0 n4 ns57 0 1.71805991686e-005
Gc2_58 0 n4 ns58 0 -2.7917409764e-006
Gc2_59 0 n4 ns59 0 -2.64245017569e-008
Gc2_60 0 n4 ns60 0 -1.61728149572e-008
Gc2_61 0 n4 ns61 0 8.51158670198e-007
Gc2_62 0 n4 ns62 0 -5.30009343602e-007
Gc2_63 0 n4 ns63 0 -2.7540366209e-006
Gc2_64 0 n4 ns64 0 0.000137749607415
Gc2_65 0 n4 ns65 0 -6.41447740164e-005
Gc2_66 0 n4 ns66 0 -0.000135857140915
Gc2_67 0 n4 ns67 0 8.31704748978e-005
Gc2_68 0 n4 ns68 0 -0.00037459984753
Gc2_69 0 n4 ns69 0 0.000209449096569
Gc2_70 0 n4 ns70 0 -0.000154551748084
Gc2_71 0 n4 ns71 0 -0.000547632308484
Gc2_72 0 n4 ns72 0 -0.000502052807042
Gc2_73 0 n4 ns73 0 0.0124627308655
Gc2_74 0 n4 ns74 0 0.00230407881907
Gc2_75 0 n4 ns75 0 0.000138661614261
Gc2_76 0 n4 ns76 0 0.000139201268247
Gc2_77 0 n4 ns77 0 0.000616487357126
Gc2_78 0 n4 ns78 0 1.98219992728e-005
Gc2_79 0 n4 ns79 0 0.000125931970955
Gc2_80 0 n4 ns80 0 9.16348917179e-006
Gc2_81 0 n4 ns81 0 2.73875055902e-005
Gc2_82 0 n4 ns82 0 3.88687959525e-005
Gc2_83 0 n4 ns83 0 2.27974062836e-007
Gc2_84 0 n4 ns84 0 -6.22742447867e-007
Gc2_85 0 n4 ns85 0 -6.11432272259e-005
Gc2_86 0 n4 ns86 0 9.19019761254e-006
Gc2_87 0 n4 ns87 0 -6.57766658574e-006
Gc2_88 0 n4 ns88 0 0.000112555722282
Gc2_89 0 n4 ns89 0 -2.271976091e-005
Gc2_90 0 n4 ns90 0 0.000225109385786
Gc2_91 0 n4 ns91 0 -3.69673953678e-005
Gc2_92 0 n4 ns92 0 -0.0124256101527
Gc2_93 0 n4 ns93 0 0.00101797539931
Gc2_94 0 n4 ns94 0 -0.000137849728383
Gc2_95 0 n4 ns95 0 -0.00553885901954
Gc2_96 0 n4 ns96 0 0.0077692473185
Gd2_1 0 n4 ni1 0 -0.000199650023332
Gd2_2 0 n4 ni2 0 0.00719264418581
Gd2_3 0 n4 ni3 0 -0.000208488487432
Gd2_4 0 n4 ni4 0 -0.00510349923078
Gc3_1 0 n6 ns1 0 0.0124754431859
Gc3_2 0 n6 ns2 0 0.00231516072504
Gc3_3 0 n6 ns3 0 0.00014330679261
Gc3_4 0 n6 ns4 0 0.000145053158168
Gc3_5 0 n6 ns5 0 0.000609129378712
Gc3_6 0 n6 ns6 0 2.24549675957e-005
Gc3_7 0 n6 ns7 0 0.000132018584606
Gc3_8 0 n6 ns8 0 8.29484257155e-006
Gc3_9 0 n6 ns9 0 6.20419925661e-005
Gc3_10 0 n6 ns10 0 3.21719881396e-005
Gc3_11 0 n6 ns11 0 2.14275435936e-007
Gc3_12 0 n6 ns12 0 -8.70047709184e-008
Gc3_13 0 n6 ns13 0 -6.08605599109e-005
Gc3_14 0 n6 ns14 0 8.59737760548e-006
Gc3_15 0 n6 ns15 0 -4.99972306708e-006
Gc3_16 0 n6 ns16 0 9.16445645152e-005
Gc3_17 0 n6 ns17 0 1.38672219654e-005
Gc3_18 0 n6 ns18 0 8.52805423971e-005
Gc3_19 0 n6 ns19 0 -7.0796283269e-005
Gc3_20 0 n6 ns20 0 -0.0116438660576
Gc3_21 0 n6 ns21 0 0.000941782312776
Gc3_22 0 n6 ns22 0 -3.00883114503e-005
Gc3_23 0 n6 ns23 0 -0.00431890082832
Gc3_24 0 n6 ns24 0 0.00888308455528
Gc3_25 0 n6 ns25 0 0.00793882331389
Gc3_26 0 n6 ns26 0 0.00853992010289
Gc3_27 0 n6 ns27 0 0.00014454599015
Gc3_28 0 n6 ns28 0 0.000136006667913
Gc3_29 0 n6 ns29 0 -0.000612972628072
Gc3_30 0 n6 ns30 0 -2.0551273272e-005
Gc3_31 0 n6 ns31 0 0.000128527507908
Gc3_32 0 n6 ns32 0 7.81466921632e-006
Gc3_33 0 n6 ns33 0 1.68865715835e-005
Gc3_34 0 n6 ns34 0 -2.73462171395e-006
Gc3_35 0 n6 ns35 0 -2.77489393287e-008
Gc3_36 0 n6 ns36 0 -1.6402447329e-008
Gc3_37 0 n6 ns37 0 7.91916493387e-007
Gc3_38 0 n6 ns38 0 -5.44515102813e-007
Gc3_39 0 n6 ns39 0 -2.76281325984e-006
Gc3_40 0 n6 ns40 0 0.000138261619817
Gc3_41 0 n6 ns41 0 -6.45711414573e-005
Gc3_42 0 n6 ns42 0 -0.000136229058298
Gc3_43 0 n6 ns43 0 8.34878836728e-005
Gc3_44 0 n6 ns44 0 -0.00037472660856
Gc3_45 0 n6 ns45 0 0.000210110420439
Gc3_46 0 n6 ns46 0 -0.00015498354293
Gc3_47 0 n6 ns47 0 -0.000549919864374
Gc3_48 0 n6 ns48 0 -0.000502748512775
Gc3_49 0 n6 ns49 0 -0.00777030079506
Gc3_50 0 n6 ns50 0 -0.00802458537561
Gc3_51 0 n6 ns51 0 0.000144411874351
Gc3_52 0 n6 ns52 0 0.000139117523065
Gc3_53 0 n6 ns53 0 -0.000608937373776
Gc3_54 0 n6 ns54 0 -2.22714237911e-005
Gc3_55 0 n6 ns55 0 -0.000131922690698
Gc3_56 0 n6 ns56 0 -8.29616710209e-006
Gc3_57 0 n6 ns57 0 9.51652214889e-005
Gc3_58 0 n6 ns58 0 4.3966728553e-005
Gc3_59 0 n6 ns59 0 -3.24757535152e-008
Gc3_60 0 n6 ns60 0 -2.86999830394e-007
Gc3_61 0 n6 ns61 0 1.26527910791e-005
Gc3_62 0 n6 ns62 0 -1.0359046002e-005
Gc3_63 0 n6 ns63 0 -7.43039832183e-007
Gc3_64 0 n6 ns64 0 0.000105201320786
Gc3_65 0 n6 ns65 0 1.01907782681e-005
Gc3_66 0 n6 ns66 0 5.46225995626e-005
Gc3_67 0 n6 ns67 0 -6.39477802671e-005
Gc3_68 0 n6 ns68 0 0.00741672661629
Gc3_69 0 n6 ns69 0 0.00102949841202
Gc3_70 0 n6 ns70 0 -0.000202128195989
Gc3_71 0 n6 ns71 0 -0.00184898196487
Gc3_72 0 n6 ns72 0 -0.00170164569061
Gc3_73 0 n6 ns73 0 -0.0124170240909
Gc3_74 0 n6 ns74 0 -0.00262031035956
Gc3_75 0 n6 ns75 0 0.00014592633116
Gc3_76 0 n6 ns76 0 0.000145286554298
Gc3_77 0 n6 ns77 0 0.000612217652795
Gc3_78 0 n6 ns78 0 2.0851994799e-005
Gc3_79 0 n6 ns79 0 -0.000128372658322
Gc3_80 0 n6 ns80 0 -8.0667920215e-006
Gc3_81 0 n6 ns81 0 -6.55014463101e-006
Gc3_82 0 n6 ns82 0 2.00208856468e-006
Gc3_83 0 n6 ns83 0 1.21363439326e-008
Gc3_84 0 n6 ns84 0 2.47192272047e-008
Gc3_85 0 n6 ns85 0 9.3238477151e-007
Gc3_86 0 n6 ns86 0 5.29997129205e-007
Gc3_87 0 n6 ns87 0 1.28250776728e-006
Gc3_88 0 n6 ns88 0 0.000119692524415
Gc3_89 0 n6 ns89 0 -6.23629916438e-005
Gc3_90 0 n6 ns90 0 -0.00012582923734
Gc3_91 0 n6 ns91 0 7.67615591354e-005
Gc3_92 0 n6 ns92 0 -0.00036918598304
Gc3_93 0 n6 ns93 0 0.000201570423959
Gc3_94 0 n6 ns94 0 -0.000148164983029
Gc3_95 0 n6 ns95 0 -0.000503218678394
Gc3_96 0 n6 ns96 0 -0.000487341162696
Gd3_1 0 n6 ni1 0 -0.00443045287052
Gd3_2 0 n6 ni2 0 -0.000209393048513
Gd3_3 0 n6 ni3 0 0.00777793492919
Gd3_4 0 n6 ni4 0 -0.000184908895731
Gc4_1 0 n8 ns1 0 0.0079269353697
Gc4_2 0 n8 ns2 0 0.00847997139504
Gc4_3 0 n8 ns3 0 0.000144555170347
Gc4_4 0 n8 ns4 0 0.000136361618045
Gc4_5 0 n8 ns5 0 -0.000612769531855
Gc4_6 0 n8 ns6 0 -2.0865923778e-005
Gc4_7 0 n8 ns7 0 0.000128507671539
Gc4_8 0 n8 ns8 0 7.87038487973e-006
Gc4_9 0 n8 ns9 0 1.7303046361e-005
Gc4_10 0 n8 ns10 0 -2.87278043756e-006
Gc4_11 0 n8 ns11 0 -2.87159068582e-008
Gc4_12 0 n8 ns12 0 -1.28364967733e-008
Gc4_13 0 n8 ns13 0 8.83266794541e-007
Gc4_14 0 n8 ns14 0 -1.36818666381e-006
Gc4_15 0 n8 ns15 0 -1.60841981568e-006
Gc4_16 0 n8 ns16 0 0.000138877471843
Gc4_17 0 n8 ns17 0 -6.5387989688e-005
Gc4_18 0 n8 ns18 0 -0.00013580095673
Gc4_19 0 n8 ns19 0 7.844390654e-005
Gc4_20 0 n8 ns20 0 -0.000350115798991
Gc4_21 0 n8 ns21 0 0.000218386831012
Gc4_22 0 n8 ns22 0 -0.000153753442598
Gc4_23 0 n8 ns23 0 -0.000548260658178
Gc4_24 0 n8 ns24 0 -0.000482821900046
Gc4_25 0 n8 ns25 0 0.0124805479555
Gc4_26 0 n8 ns26 0 0.0019942286055
Gc4_27 0 n8 ns27 0 0.000137472210293
Gc4_28 0 n8 ns28 0 0.000139253369188
Gc4_29 0 n8 ns29 0 0.000616460462225
Gc4_30 0 n8 ns30 0 2.02072428796e-005
Gc4_31 0 n8 ns31 0 0.000125972325945
Gc4_32 0 n8 ns32 0 9.2805475806e-006
Gc4_33 0 n8 ns33 0 2.9415627416e-005
Gc4_34 0 n8 ns34 0 3.22682443991e-005
Gc4_35 0 n8 ns35 0 2.19312815092e-007
Gc4_36 0 n8 ns36 0 -7.86608506489e-009
Gc4_37 0 n8 ns37 0 -6.0694552657e-005
Gc4_38 0 n8 ns38 0 8.59685880141e-006
Gc4_39 0 n8 ns39 0 -7.24764416538e-006
Gc4_40 0 n8 ns40 0 9.32283281126e-005
Gc4_41 0 n8 ns41 0 -3.05998091211e-005
Gc4_42 0 n8 ns42 0 0.000239962309722
Gc4_43 0 n8 ns43 0 -4.65886136045e-005
Gc4_44 0 n8 ns44 0 -0.0123374899366
Gc4_45 0 n8 ns45 0 0.000993820179921
Gc4_46 0 n8 ns46 0 -0.000118199715267
Gc4_47 0 n8 ns47 0 -0.00533306081684
Gc4_48 0 n8 ns48 0 0.00789718897815
Gc4_49 0 n8 ns49 0 -0.0124162761601
Gc4_50 0 n8 ns50 0 -0.00261030476569
Gc4_51 0 n8 ns51 0 0.000145718738372
Gc4_52 0 n8 ns52 0 0.000145095739753
Gc4_53 0 n8 ns53 0 0.00061217647059
Gc4_54 0 n8 ns54 0 2.08099505195e-005
Gc4_55 0 n8 ns55 0 -0.000128368516516
Gc4_56 0 n8 ns56 0 -8.04515846175e-006
Gc4_57 0 n8 ns57 0 -6.24542019728e-006
Gc4_58 0 n8 ns58 0 1.95888491297e-006
Gc4_59 0 n8 ns59 0 1.14975268667e-008
Gc4_60 0 n8 ns60 0 1.98909377932e-008
Gc4_61 0 n8 ns61 0 9.81863346816e-007
Gc4_62 0 n8 ns62 0 5.27616135264e-007
Gc4_63 0 n8 ns63 0 1.26822604201e-006
Gc4_64 0 n8 ns64 0 0.000119098214505
Gc4_65 0 n8 ns65 0 -6.22478268862e-005
Gc4_66 0 n8 ns66 0 -0.000125080251911
Gc4_67 0 n8 ns67 0 7.66511974218e-005
Gc4_68 0 n8 ns68 0 -0.000369517645874
Gc4_69 0 n8 ns69 0 0.000201215257697
Gc4_70 0 n8 ns70 0 -0.000147709121456
Gc4_71 0 n8 ns71 0 -0.0005024443087
Gc4_72 0 n8 ns72 0 -0.00048766063507
Gc4_73 0 n8 ns73 0 -0.00777435156369
Gc4_74 0 n8 ns74 0 -0.00783066726469
Gc4_75 0 n8 ns75 0 0.00014537247575
Gc4_76 0 n8 ns76 0 0.000133235427784
Gc4_77 0 n8 ns77 0 -0.000616434670585
Gc4_78 0 n8 ns78 0 -1.97308806583e-005
Gc4_79 0 n8 ns79 0 -0.000125741786439
Gc4_80 0 n8 ns80 0 -9.11294639699e-006
Gc4_81 0 n8 ns81 0 0.000121016093632
Gc4_82 0 n8 ns82 0 3.98131093255e-005
Gc4_83 0 n8 ns83 0 7.23641330582e-008
Gc4_84 0 n8 ns84 0 -3.33118462866e-007
Gc4_85 0 n8 ns85 0 1.64122404343e-005
Gc4_86 0 n8 ns86 0 -5.17051068293e-006
Gc4_87 0 n8 ns87 0 9.35220457899e-006
Gc4_88 0 n8 ns88 0 0.000110082336768
Gc4_89 0 n8 ns89 0 8.19583494704e-006
Gc4_90 0 n8 ns90 0 0.000194154179723
Gc4_91 0 n8 ns91 0 -5.92149534032e-005
Gc4_92 0 n8 ns92 0 0.00763419612749
Gc4_93 0 n8 ns93 0 0.00116747745682
Gc4_94 0 n8 ns94 0 -0.000141320678517
Gc4_95 0 n8 ns95 0 -0.00164917329958
Gc4_96 0 n8 ns96 0 -0.00191173328825
Gd4_1 0 n8 ni1 0 -0.000198524333738
Gd4_2 0 n8 ni2 0 -0.00496498101128
Gd4_3 0 n8 ni3 0 -0.000184662593546
Gd4_4 0 n8 ni4 0 0.00839420467604
.ends

************************************************************************************************************
*****************************************----810913010----**************************************************
************************************************************************************************************
************************************************************************************************************

.subckt 810913010 0 1 2 3 4
Vam1 1 n2 dc 0
Rport1 n2 0 50
Vam2 2 n4 dc 0
Rport2 n4 0 50
Vam3 3 n6 dc 0
Rport3 n6 0 50
Vam4 4 n8 dc 0
Rport4 n8 0 50

Fi1 0 ni1 Vam1 50
Gi1 0 ni1 1 0 1
Rt1 ni1 0 1
Fi2 0 ni2 Vam2 50
Gi2 0 ni2 2 0 1
Rt2 ni2 0 1
Fi3 0 ni3 Vam3 50
Gi3 0 ni3 3 0 1
Rt3 ni3 0 1
Fi4 0 ni4 Vam4 50
Gi4 0 ni4 4 0 1
Rt4 ni4 0 1

Ca1 ns1 0 1e-012
Ra1 ns1 0 96070247.4488
Ca2 ns2 0 1e-012
Ra2 ns2 0 28331724.1992
Ca3 ns3 0 1e-012
Ca4 ns4 0 1e-012
Ra3 ns3 0 15737390.4813
Ra4 ns4 0 15737390.4813
Ga3 ns3 0 ns4 0 -2.00782046636e-007
Ga4 ns4 0 ns3 0 2.00782046636e-007
Ca5 ns5 0 1e-012
Ca6 ns6 0 1e-012
Ra5 ns5 0 33559036.8825
Ra6 ns6 0 33559036.8825
Ga5 ns5 0 ns6 0 -3.93722721724e-007
Ga6 ns6 0 ns5 0 3.93722721724e-007
Ca7 ns7 0 1e-012
Ca8 ns8 0 1e-012
Ra7 ns7 0 24267686.382
Ra8 ns8 0 24267686.382
Ga7 ns7 0 ns8 0 -6.47933032072e-007
Ga8 ns8 0 ns7 0 6.47933032072e-007
Ca9 ns9 0 1e-012
Ra9 ns9 0 1470792.93519
Ca10 ns10 0 1e-012
Ra10 ns10 0 203013.915824
Ca11 ns11 0 1e-012
Ca12 ns12 0 1e-012
Ra11 ns11 0 44749.3359198
Ra12 ns12 0 44749.3359198
Ga11 ns11 0 ns12 0 -1.33960760219e-005
Ga12 ns12 0 ns11 0 1.33960760219e-005
Ca13 ns13 0 1e-012
Ca14 ns14 0 1e-012
Ra13 ns13 0 7623.94595638
Ra14 ns14 0 7623.94595638
Ga13 ns13 0 ns14 0 -0.000426886265135
Ga14 ns14 0 ns13 0 0.000426886265135
Ca15 ns15 0 1e-012
Ra15 ns15 0 1131.40107907
Ca16 ns16 0 1e-012
Ca17 ns17 0 1e-012
Ra16 ns16 0 2408.42680903
Ra17 ns17 0 2408.42680903
Ga16 ns16 0 ns17 0 -0.00088146051965
Ga17 ns17 0 ns16 0 0.00088146051965
Ca18 ns18 0 1e-012
Ra18 ns18 0 96070247.4488
Ca19 ns19 0 1e-012
Ra19 ns19 0 28331724.1992
Ca20 ns20 0 1e-012
Ca21 ns21 0 1e-012
Ra20 ns20 0 15737390.4813
Ra21 ns21 0 15737390.4813
Ga20 ns20 0 ns21 0 -2.00782046636e-007
Ga21 ns21 0 ns20 0 2.00782046636e-007
Ca22 ns22 0 1e-012
Ca23 ns23 0 1e-012
Ra22 ns22 0 33559036.8825
Ra23 ns23 0 33559036.8825
Ga22 ns22 0 ns23 0 -3.93722721724e-007
Ga23 ns23 0 ns22 0 3.93722721724e-007
Ca24 ns24 0 1e-012
Ca25 ns25 0 1e-012
Ra24 ns24 0 24267686.382
Ra25 ns25 0 24267686.382
Ga24 ns24 0 ns25 0 -6.47933032072e-007
Ga25 ns25 0 ns24 0 6.47933032072e-007
Ca26 ns26 0 1e-012
Ra26 ns26 0 1470792.93519
Ca27 ns27 0 1e-012
Ra27 ns27 0 203013.915824
Ca28 ns28 0 1e-012
Ca29 ns29 0 1e-012
Ra28 ns28 0 44749.3359198
Ra29 ns29 0 44749.3359198
Ga28 ns28 0 ns29 0 -1.33960760219e-005
Ga29 ns29 0 ns28 0 1.33960760219e-005
Ca30 ns30 0 1e-012
Ca31 ns31 0 1e-012
Ra30 ns30 0 7623.94595638
Ra31 ns31 0 7623.94595638
Ga30 ns30 0 ns31 0 -0.000426886265135
Ga31 ns31 0 ns30 0 0.000426886265135
Ca32 ns32 0 1e-012