* LTspice File
* 
**************************************************
* Manufacturer:           Würth Elektronik
* Kinds:                  Line Filter
* Matchcode:              WE-CLFS
* Library Type:           LTspice
* Version:                rev25a
* Created/modified by:    Alexander E.      
* Date and Time:          2025-05-23
* Team:                   PM eiSos EMC & SIPI  
* Contact:                libraries@we-online.com
**************************************************
* Copyright(C) 2025 Würth Elektronik eiSos GmbH & Co. KG
* All Rights Reserved.
**************************************************
* Disclaimer: While Würth Elektronik eiSos has made every reasonable effort to ensure the accuracy
* of the simulation models provided, Würth Elektronik eiSos does not guarantee the exemption of error on
* the simulation models, nor does Würth Elektronik eiSos guarantee that the simulation model is current.
* Würth Elektronik eiSos reserves the right to make any adjustments at any time without notice.
* Würth Elektronik eiSos expressly disclaims all implied warranties regarding this simulation model.
**************************************************
*
*Important Notice for Use:
*
*This model is based on directly measured S-parameters (amplitude and phase) and is intended exclusively
*for AC analysis within the measured frequency range.
*Transient simulations or usage beyond the measured frequency range are not supported by this model,
*although they may technically be performed. However, such use may result in *inaccurate behavior or
*convergence issues during simulation.
*Therefore, operation outside the specified frequency range is not recommended and should only be
*considered after careful evaluation.
*
**************************************************
*
*
.SUBCKT 810911001 1 2 3 4 5 
*
* GHz S MA R 50.000000
* Terminal data exported
* Port[1] = Port1
* Port[2] = Port2
* Port[3] = Port3
* Port[4] = Port4
* Z1=50.000000 Z2=50.000000 Z3=50.000000 Z4=50.000000

R1N 1 10 -5.000000e+001
R1P 10 11 1.000000e+002
R2N 2 20 -5.000000e+001
R2P 20 21 1.000000e+002
R3N 3 30 -5.000000e+001
R3P 30 31 1.000000e+002
R4N 4 40 -5.000000e+001
R4P 40 41 1.000000e+002

*S11 FREQ MAG PHASE
E11 11 12 FREQ {V(10,5)}= MAG
+( 5.000000e+000, 1.081854e-002, 6.888620e+001)
+( 5.120110e+000, 1.106155e-002, 6.916188e+001)
+( 5.243105e+000, 1.131071e-002, 6.941462e+001)
+( 5.369055e+000, 1.156510e-002, 6.965581e+001)
+( 5.498030e+000, 1.182565e-002, 6.989192e+001)
+( 5.630104e+000, 1.209175e-002, 7.011929e+001)
+( 5.765350e+000, 1.236371e-002, 7.034352e+001)
+( 5.903845e+000, 1.264260e-002, 7.056486e+001)
+( 6.045667e+000, 1.292821e-002, 7.077702e+001)
+( 6.190896e+000, 1.322090e-002, 7.098094e+001)
+( 6.339614e+000, 1.352073e-002, 7.118056e+001)
+( 6.491904e+000, 1.382901e-002, 7.137902e+001)
+( 6.647852e+000, 1.414254e-002, 7.155999e+001)
+( 6.807547e+000, 1.446704e-002, 7.174585e+001)
+( 6.971077e+000, 1.482965e-002, 7.192882e+001)
+( 7.138536e+000, 1.514438e-002, 7.208822e+001)
+( 7.310018e+000, 1.548541e-002, 7.225037e+001)
+( 7.485619e+000, 1.583329e-002, 7.240953e+001)
+( 7.665439e+000, 1.619399e-002, 7.256519e+001)
+( 7.849578e+000, 1.657223e-002, 7.271699e+001)
+( 8.038140e+000, 1.695042e-002, 7.286088e+001)
+( 8.231232e+000, 1.733575e-002, 7.300014e+001)
+( 8.428963e+000, 1.774247e-002, 7.313730e+001)
+( 8.631443e+000, 1.814863e-002, 7.326418e+001)
+( 8.838787e+000, 1.856472e-002, 7.338738e+001)
+( 9.051113e+000, 1.900147e-002, 7.350943e+001)
+( 9.268538e+000, 1.943244e-002, 7.362224e+001)
+( 9.491187e+000, 1.996340e-002, 7.366709e+001)
+( 9.719184e+000, 2.038936e-002, 7.378607e+001)
+( 9.952658e+000, 2.080406e-002, 7.389413e+001)
+( 1.019174e+001, 2.131525e-002, 7.399962e+001)
+( 1.043657e+001, 2.185159e-002, 7.410001e+001)
+( 1.068727e+001, 2.230144e-002, 7.417880e+001)
+( 1.094400e+001, 2.280228e-002, 7.426086e+001)
+( 1.120690e+001, 2.341681e-002, 7.434827e+001)
+( 1.147611e+001, 2.390006e-002, 7.441323e+001)
+( 1.175179e+001, 2.444218e-002, 7.448008e+001)
+( 1.203409e+001, 2.508277e-002, 7.454916e+001)
+( 1.232317e+001, 2.560285e-002, 7.460045e+001)
+( 1.261920e+001, 2.624168e-002, 7.465924e+001)
+( 1.292234e+001, 2.685802e-002, 7.470316e+001)
+( 1.323276e+001, 2.749887e-002, 7.476288e+001)
+( 1.355064e+001, 2.810207e-002, 7.479548e+001)
+( 1.387615e+001, 2.870237e-002, 7.482197e+001)
+( 1.420948e+001, 2.938903e-002, 7.485301e+001)
+( 1.455082e+001, 3.014021e-002, 7.488161e+001)
+( 1.490036e+001, 3.078905e-002, 7.490253e+001)
+( 1.525830e+001, 3.148985e-002, 7.492070e+001)
+( 1.562483e+001, 3.231751e-002, 7.493449e+001)
+( 1.600017e+001, 3.301252e-002, 7.494247e+001)
+( 1.638453e+001, 3.377592e-002, 7.494792e+001)
+( 1.677812e+001, 3.464002e-002, 7.494197e+001)
+( 1.718116e+001, 3.538728e-002, 7.493403e+001)
+( 1.759389e+001, 3.626618e-002, 7.492652e+001)
+( 1.801653e+001, 3.705570e-002, 7.488632e+001)
+( 1.844932e+001, 3.788188e-002, 7.487583e+001)
+( 1.889251e+001, 3.879646e-002, 7.487576e+001)
+( 1.934634e+001, 3.972058e-002, 7.484947e+001)
+( 1.981108e+001, 4.066567e-002, 7.481890e+001)
+( 2.028698e+001, 4.163240e-002, 7.478214e+001)
+( 2.077431e+001, 4.262292e-002, 7.474034e+001)
+( 2.127335e+001, 4.363466e-002, 7.469457e+001)
+( 2.178438e+001, 4.466960e-002, 7.464400e+001)
+( 2.230769e+001, 4.572956e-002, 7.459097e+001)
+( 2.284356e+001, 4.676581e-002, 7.453364e+001)
+( 2.339231e+001, 4.772047e-002, 7.447770e+001)
+( 2.395424e+001, 4.885293e-002, 7.440980e+001)
+( 2.452967e+001, 5.001187e-002, 7.433828e+001)
+( 2.511892e+001, 5.117034e-002, 7.422348e+001)
+( 2.572232e+001, 5.236662e-002, 7.413580e+001)
+( 2.634023e+001, 5.360808e-002, 7.408216e+001)
+( 2.697297e+001, 5.485779e-002, 7.399320e+001)
+( 2.762091e+001, 5.613639e-002, 7.389840e+001)
+( 2.828442e+001, 5.744173e-002, 7.379963e+001)
+( 2.896387e+001, 5.877460e-002, 7.369196e+001)
+( 2.965964e+001, 6.013836e-002, 7.358262e+001)
+( 3.037212e+001, 6.153266e-002, 7.346985e+001)
+( 3.110172e+001, 6.296122e-002, 7.334928e+001)
+( 3.184885e+001, 6.441996e-002, 7.322498e+001)
+( 3.261392e+001, 6.590907e-002, 7.309416e+001)
+( 3.339737e+001, 6.743111e-002, 7.296063e+001)
+( 3.419964e+001, 6.900234e-002, 7.281742e+001)
+( 3.502118e+001, 7.057827e-002, 7.267321e+001)
+( 3.586246e+001, 7.214444e-002, 7.252894e+001)
+( 3.672395e+001, 7.377410e-002, 7.237530e+001)
+( 3.760613e+001, 7.557014e-002, 7.220369e+001)
+( 3.850951e+001, 7.724389e-002, 7.204346e+001)
+( 3.943458e+001, 7.894808e-002, 7.187752e+001)
+( 4.038188e+001, 8.069147e-002, 7.170593e+001)
+( 4.135193e+001, 8.264641e-002, 7.151329e+001)
+( 4.234528e+001, 8.447165e-002, 7.132957e+001)
+( 4.336250e+001, 8.632940e-002, 7.114153e+001)
+( 4.440416e+001, 8.840305e-002, 7.093133e+001)
+( 4.547083e+001, 9.032963e-002, 7.073322e+001)
+( 4.656313e+001, 9.235220e-002, 7.052399e+001)
+( 4.768167e+001, 9.447247e-002, 7.030499e+001)
+( 4.882708e+001, 9.656007e-002, 7.008740e+001)
+( 5.000000e+001, 9.877541e-002, 6.985350e+001)
+( 5.120110e+001, 1.009073e-001, 6.962633e+001)
+( 5.243105e+001, 1.030725e-001, 6.939580e+001)
+( 5.369055e+001, 1.054471e-001, 6.914189e+001)
+( 5.498030e+001, 1.077135e-001, 6.889754e+001)
+( 5.630104e+001, 1.101574e-001, 6.863502e+001)
+( 5.765350e+001, 1.125211e-001, 6.837735e+001)
+( 5.903845e+001, 1.150547e-001, 6.809993e+001)
+( 6.045667e+001, 1.174940e-001, 6.783125e+001)
+( 6.190896e+001, 1.201300e-001, 6.754130e+001)
+( 6.339614e+001, 1.226418e-001, 6.726358e+001)
+( 6.491904e+001, 1.252267e-001, 6.697818e+001)
+( 6.647852e+001, 1.279755e-001, 6.665663e+001)
+( 6.807547e+001, 1.306773e-001, 6.633192e+001)
+( 6.971077e+001, 1.334613e-001, 6.605255e+001)
+( 7.138536e+001, 1.363841e-001, 6.572022e+001)
+( 7.310018e+001, 1.392194e-001, 6.540185e+001)
+( 7.485619e+001, 1.420908e-001, 6.507434e+001)
+( 7.665439e+001, 1.449998e-001, 6.474190e+001)
+( 7.849578e+001, 1.480952e-001, 6.439008e+001)
+( 8.038140e+001, 1.511322e-001, 6.404208e+001)
+( 8.231232e+001, 1.541739e-001, 6.369387e+001)
+( 8.428963e+001, 1.574138e-001, 6.332382e+001)
+( 8.631443e+001, 1.605635e-001, 6.295887e+001)
+( 8.838787e+001, 1.637377e-001, 6.259178e+001)
+( 9.051113e+001, 1.668933e-001, 6.218907e+001)
+( 9.268538e+001, 1.699871e-001, 6.170939e+001)
+( 9.491187e+001, 1.737377e-001, 6.142839e+001)
+( 9.719184e+001, 1.771242e-001, 6.102853e+001)
+( 9.952658e+001, 1.805480e-001, 6.062631e+001)
+( 1.019174e+002, 1.833613e-001, 6.022730e+001)
+( 1.043657e+002, 1.873628e-001, 5.979020e+001)
+( 1.068727e+002, 1.909550e-001, 5.939816e+001)
+( 1.094400e+002, 1.949392e-001, 5.892418e+001)
+( 1.120690e+002, 1.984096e-001, 5.851068e+001)
+( 1.147611e+002, 2.026175e-001, 5.800729e+001)
+( 1.175179e+002, 2.059457e-001, 5.760883e+001)
+( 1.203409e+002, 2.091690e-001, 5.722056e+001)
+( 1.232317e+002, 2.135496e-001, 5.669084e+001)
+( 1.261920e+002, 2.167921e-001, 5.628330e+001)
+( 1.292234e+002, 2.198698e-001, 5.571980e+001)
+( 1.323276e+002, 2.252404e-001, 5.526056e+001)
+( 1.355064e+002, 2.286965e-001, 5.483548e+001)
+( 1.387615e+002, 2.321776e-001, 5.440543e+001)
+( 1.420948e+002, 2.364123e-001, 5.388160e+001)
+( 1.455082e+002, 2.402417e-001, 5.340600e+001)
+( 1.490036e+002, 2.444445e-001, 5.288162e+001)
+( 1.525830e+002, 2.483180e-001, 5.239875e+001)
+( 1.562483e+002, 2.525950e-001, 5.186180e+001)
+( 1.600017e+002, 2.563901e-001, 5.138075e+001)
+( 1.638453e+002, 2.599635e-001, 5.092568e+001)
+( 1.677812e+002, 2.643983e-001, 5.036243e+001)
+( 1.718116e+002, 2.680385e-001, 4.989413e+001)
+( 1.759389e+002, 2.709557e-001, 4.931810e+001)
+( 1.801653e+002, 2.759497e-001, 4.882439e+001)
+( 1.844932e+002, 2.801338e-001, 4.830951e+001)
+( 1.889251e+002, 2.840884e-001, 4.778842e+001)
+( 1.934634e+002, 2.880481e-001, 4.726214e+001)
+( 1.981108e+002, 2.924320e-001, 4.667545e+001)
+( 2.028698e+002, 2.967290e-001, 4.609848e+001)
+( 2.077431e+002, 3.006265e-001, 4.557279e+001)
+( 2.127335e+002, 3.045161e-001, 4.504576e+001)
+( 2.178438e+002, 3.083865e-001, 4.451780e+001)
+( 2.230769e+002, 3.122411e-001, 4.398866e+001)
+( 2.284356e+002, 3.160891e-001, 4.345486e+001)
+( 2.339231e+002, 3.198959e-001, 4.292309e+001)
+( 2.395424e+002, 3.236801e-001, 4.238913e+001)
+( 2.452967e+002, 3.269744e-001, 4.181348e+001)
+( 2.511892e+002, 3.315224e-001, 4.123993e+001)
+( 2.572232e+002, 3.353103e-001, 4.070171e+001)
+( 2.634023e+002, 3.388818e-001, 4.017465e+001)
+( 2.697297e+002, 3.424433e-001, 3.964797e+001)
+( 2.762091e+002, 3.459898e-001, 3.911988e+001)
+( 2.828442e+002, 3.497287e-001, 3.855820e+001)
+( 2.896387e+002, 3.534406e-001, 3.799383e+001)
+( 2.965964e+002, 3.568511e-001, 3.746943e+001)
+( 3.037212e+002, 3.602290e-001, 3.694786e+001)
+( 3.110172e+002, 3.635638e-001, 3.642711e+001)
+( 3.184885e+002, 3.671666e-001, 3.585543e+001)
+( 3.261392e+002, 3.704913e-001, 3.532241e+001)
+( 3.339737e+002, 3.720418e-001, 3.480478e+001)
+( 3.419964e+002, 3.761786e-001, 3.429063e+001)
+( 3.502118e+002, 3.799476e-001, 3.375279e+001)
+( 3.586246e+002, 3.832008e-001, 3.320600e+001)
+( 3.672395e+002, 3.862455e-001, 3.268851e+001)
+( 3.760613e+002, 3.891953e-001, 3.217937e+001)
+( 3.850951e+002, 3.922802e-001, 3.164042e+001)
+( 3.943458e+002, 3.951941e-001, 3.112797e+001)
+( 4.038188e+002, 3.979681e-001, 3.063206e+001)
+( 4.135193e+002, 4.007824e-001, 3.011980e+001)
+( 4.234528e+002, 4.034468e-001, 2.962891e+001)
+( 4.336250e+002, 4.062435e-001, 2.910629e+001)
+( 4.440416e+002, 4.088211e-001, 2.861749e+001)
+( 4.547083e+002, 4.114042e-001, 2.812379e+001)
+( 4.656313e+002, 4.122526e-001, 2.771753e+001)
+( 4.768167e+002, 4.156963e-001, 2.716604e+001)
+( 4.882708e+002, 4.188115e-001, 2.663710e+001)
+( 5.000000e+002, 4.210983e-001, 2.617037e+001)
+( 5.120110e+002, 4.233027e-001, 2.571351e+001)
+( 5.243105e+002, 4.255644e-001, 2.523967e+001)
+( 5.369055e+002, 4.277626e-001, 2.477021e+001)
+( 5.498030e+002, 4.299415e-001, 2.430250e+001)
+( 5.630104e+002, 4.320238e-001, 2.383943e+001)
+( 5.765350e+002, 4.340543e-001, 2.338087e+001)
+( 5.903845e+002, 4.360208e-001, 2.293236e+001)
+( 6.045667e+002, 4.379134e-001, 2.249548e+001)
+( 6.190896e+002, 4.397158e-001, 2.206982e+001)
+( 6.339614e+002, 4.415486e-001, 2.163105e+001)
+( 6.491904e+002, 4.424096e-001, 2.129904e+001)
+( 6.647852e+002, 4.445196e-001, 2.082216e+001)
+( 6.807547e+002, 4.467582e-001, 2.033289e+001)
+( 6.971077e+002, 4.483697e-001, 1.992036e+001)
+( 7.138536e+002, 4.498950e-001, 1.951783e+001)
+( 7.310018e+002, 4.514100e-001, 1.910729e+001)
+( 7.485619e+002, 4.529245e-001, 1.869894e+001)
+( 7.665439e+002, 4.543706e-001, 1.829621e+001)
+( 7.849578e+002, 4.557376e-001, 1.789925e+001)
+( 8.038140e+002, 4.571125e-001, 1.750357e+001)
+( 8.231232e+002, 4.584402e-001, 1.711390e+001)
+( 8.428963e+002, 4.597204e-001, 1.673060e+001)
+( 8.631443e+002, 4.609453e-001, 1.635259e+001)
+( 8.838787e+002, 4.619244e-001, 1.605904e+001)
+( 9.051113e+002, 4.630946e-001, 1.569192e+001)
+( 9.268538e+002, 4.643847e-001, 1.526498e+001)
+( 9.491187e+002, 4.654633e-001, 1.489966e+001)
+( 9.719184e+002, 4.665225e-001, 1.454329e+001)
+( 9.952658e+002, 4.675135e-001, 1.418731e+001)
+( 1.019174e+003, 4.684311e-001, 1.386230e+001)
+( 1.043657e+003, 4.695498e-001, 1.346099e+001)
+( 1.068727e+003, 4.703092e-001, 1.317348e+001)
+( 1.094400e+003, 4.713513e-001, 1.278329e+001)
+( 1.120690e+003, 4.720578e-001, 1.250511e+001)
+( 1.147611e+003, 4.730069e-001, 1.212995e+001)
+( 1.175179e+003, 4.737213e-001, 1.183395e+001)
+( 1.203409e+003, 4.745346e-001, 1.149531e+001)
+( 1.232317e+003, 4.752659e-001, 1.121863e+001)
+( 1.261920e+003, 4.760472e-001, 1.089281e+001)
+( 1.292234e+003, 4.766504e-001, 1.055743e+001)
+( 1.323276e+003, 4.772559e-001, 1.027967e+001)
+( 1.355064e+003, 4.779606e-001, 9.942904e+000)
+( 1.387615e+003, 4.785044e-001, 9.681942e+000)
+( 1.420948e+003, 4.791690e-001, 9.340006e+000)
+( 1.455082e+003, 4.797918e-001, 9.015931e+000)
+( 1.490036e+003, 4.802730e-001, 8.760481e+000)
+( 1.525830e+003, 4.808797e-001, 8.444668e+000)
+( 1.562483e+003, 4.812981e-001, 8.193577e+000)
+( 1.600017e+003, 4.818231e-001, 7.890127e+000)
+( 1.638453e+003, 4.822476e-001, 7.633643e+000)
+( 1.677812e+003, 4.826396e-001, 7.330983e+000)
+( 1.718116e+003, 4.830219e-001, 7.062190e+000)
+( 1.759389e+003, 4.835883e-001, 6.797157e+000)
+( 1.801653e+003, 4.840012e-001, 6.531683e+000)
+( 1.844932e+003, 4.844150e-001, 6.220625e+000)
+( 1.889251e+003, 4.847363e-001, 5.964587e+000)
+( 1.934634e+003, 4.851124e-001, 5.710833e+000)
+( 1.981108e+003, 4.854226e-001, 5.463167e+000)
+( 2.028698e+003, 4.857514e-001, 5.164805e+000)
+( 2.077431e+003, 4.860805e-001, 4.912647e+000)
+( 2.127335e+003, 4.863474e-001, 4.665290e+000)
+( 2.178438e+003, 4.866499e-001, 4.420717e+000)
+( 2.230769e+003, 4.868828e-001, 4.176790e+000)
+( 2.284356e+003, 4.871764e-001, 3.889659e+000)
+( 2.339231e+003, 4.873434e-001, 3.661259e+000)
+( 2.395424e+003, 4.875502e-001, 3.428539e+000)
+( 2.452967e+003, 4.878687e-001, 3.136739e+000)
+( 2.511892e+003, 4.880244e-001, 2.895603e+000)
+( 2.572232e+003, 4.882127e-001, 2.660741e+000)
+( 2.634023e+003, 4.884234e-001, 2.394176e+000)
+( 2.697297e+003, 4.885570e-001, 2.152150e+000)
+( 2.762091e+003, 4.887074e-001, 1.918908e+000)
+( 2.828442e+003, 4.888737e-001, 1.651300e+000)
+( 2.896387e+003, 4.890303e-001, 1.407984e+000)
+( 2.965964e+003, 4.891507e-001, 1.171881e+000)
+( 3.037212e+003, 4.892578e-001, 9.057160e-001)
+( 3.110172e+003, 4.893509e-001, 6.685708e-001)
+( 3.184885e+003, 4.894250e-001, 4.331777e-001)
+( 3.261392e+003, 4.894874e-001, 1.659560e-001)
+( 3.339737e+003, 4.895518e-001,-7.684259e-002)
+( 3.419964e+003, 4.896631e-001,-3.315346e-001)
+( 3.502118e+003, 4.896955e-001,-5.605313e-001)
+( 3.586246e+003, 4.897124e-001,-8.188109e-001)
+( 3.672395e+003, 4.897208e-001,-1.074364e+000)
+( 3.760613e+003, 4.897569e-001,-1.331914e+000)
+( 3.850951e+003, 4.897956e-001,-1.590586e+000)
+( 3.943458e+003, 4.897868e-001,-1.850637e+000)
+( 4.038188e+003, 4.897290e-001,-2.088490e+000)
+( 4.135193e+003, 4.897251e-001,-2.349011e+000)
+( 4.234528e+003, 4.897066e-001,-2.611106e+000)
+( 4.336250e+003, 4.896496e-001,-2.880167e+000)
+( 4.440416e+003, 4.896150e-001,-3.145450e+000)
+( 4.547083e+003, 4.895681e-001,-3.396066e+000)
+( 4.656313e+003, 4.893848e-001,-3.657780e+000)
+( 4.768167e+003, 4.892890e-001,-3.925430e+000)
+( 4.882708e+003, 4.892053e-001,-4.212253e+000)
+( 5.000000e+003, 4.891071e-001,-4.484503e+000)
+( 5.120110e+003, 4.889752e-001,-4.757429e+000)
+( 5.243105e+003, 4.888194e-001,-5.045115e+000)
+( 5.369055e+003, 4.886387e-001,-5.326020e+000)
+( 5.498030e+003, 4.884481e-001,-5.604245e+000)
+( 5.630104e+003, 4.882190e-001,-5.900299e+000)
+( 5.765350e+003, 4.880502e-001,-6.197961e+000)
+( 5.903845e+003, 4.878359e-001,-6.487269e+000)
+( 6.045667e+003, 4.875727e-001,-6.799307e+000)
+( 6.190896e+003, 4.872978e-001,-7.092081e+000)
+( 6.339614e+003, 4.870839e-001,-7.393478e+000)
+( 6.491904e+003, 4.866873e-001,-7.699952e+000)
+( 6.647852e+003, 4.863654e-001,-8.020783e+000)
+( 6.807547e+003, 4.860100e-001,-8.339502e+000)
+( 6.971077e+003, 4.856751e-001,-8.666520e+000)
+( 7.138536e+003, 4.853145e-001,-8.992151e+000)
+( 7.310018e+003, 4.849046e-001,-9.327275e+000)
+( 7.485619e+003, 4.844929e-001,-9.662422e+000)
+( 7.665439e+003, 4.840374e-001,-1.001015e+001)
+( 7.849578e+003, 4.835533e-001,-1.035346e+001)
+( 8.038140e+003, 4.830409e-001,-1.070709e+001)
+( 8.231232e+003, 4.825373e-001,-1.106457e+001)
+( 8.428963e+003, 4.819260e-001,-1.144396e+001)
+( 8.631443e+003, 4.813611e-001,-1.180504e+001)
+( 8.838787e+003, 4.807815e-001,-1.217561e+001)
+( 9.051113e+003, 4.801489e-001,-1.256547e+001)
+( 9.268538e+003, 4.794157e-001,-1.295961e+001)
+( 9.491187e+003, 4.786736e-001,-1.334296e+001)
+( 9.719184e+003, 4.779689e-001,-1.373444e+001)
+( 9.952658e+003, 4.772249e-001,-1.413686e+001)
+( 1.019174e+004, 4.749920e-001,-1.461881e+001)
+( 1.043657e+004, 4.741630e-001,-1.503498e+001)
+( 1.068727e+004, 4.731502e-001,-1.544204e+001)
+( 1.094400e+004, 4.721205e-001,-1.587612e+001)
+( 1.120690e+004, 4.711199e-001,-1.631040e+001)
+( 1.147611e+004, 4.701838e-001,-1.684055e+001)
+( 1.175179e+004, 4.689918e-001,-1.722744e+001)
+( 1.203409e+004, 4.678142e-001,-1.766976e+001)
+( 1.232317e+004, 4.666008e-001,-1.817011e+001)
+( 1.261920e+004, 4.654616e-001,-1.869153e+001)
+( 1.292234e+004, 4.640177e-001,-1.915214e+001)
+( 1.323276e+004, 4.626013e-001,-1.963198e+001)
+( 1.355064e+004, 4.612895e-001,-2.017730e+001)
+( 1.387615e+004, 4.597069e-001,-2.067296e+001)
+( 1.420948e+004, 4.581304e-001,-2.115602e+001)
+( 1.455082e+004, 4.566170e-001,-2.173881e+001)
+( 1.490036e+004, 4.548590e-001,-2.226178e+001)
+( 1.525830e+004, 4.532235e-001,-2.277075e+001)
+( 1.562483e+004, 4.515103e-001,-2.336869e+001)
+( 1.600017e+004, 4.495591e-001,-2.391959e+001)
+( 1.638453e+004, 4.476734e-001,-2.448607e+001)
+( 1.677812e+004, 4.455895e-001,-2.507917e+001)
+( 1.718116e+004, 4.436657e-001,-2.566078e+001)
+( 1.759389e+004, 4.414152e-001,-2.626440e+001)
+( 1.801653e+004, 4.393160e-001,-2.687072e+001)
+( 1.844932e+004, 4.369369e-001,-2.746086e+001)
+( 1.889251e+004, 4.346164e-001,-2.810304e+001)
+( 1.934634e+004, 4.321381e-001,-2.873409e+001)
+( 1.981108e+004, 4.295803e-001,-2.936026e+001)
+( 2.028698e+004, 4.269865e-001,-3.000013e+001)
+( 2.077431e+004, 4.242059e-001,-3.064283e+001)
+( 2.127335e+004, 4.214928e-001,-3.129734e+001)
+( 2.178438e+004, 4.187924e-001,-3.194996e+001)
+( 2.230769e+004, 4.158600e-001,-3.260706e+001)
+( 2.284356e+004, 4.128494e-001,-3.329854e+001)
+( 2.339231e+004, 4.097654e-001,-3.398203e+001)
+( 2.395424e+004, 4.065278e-001,-3.464643e+001)
+( 2.452967e+004, 4.032744e-001,-3.532759e+001)
+( 2.511892e+004, 4.000076e-001,-3.601540e+001)
+( 2.572232e+004, 3.966030e-001,-3.671201e+001)
+( 2.634023e+004, 3.930749e-001,-3.742610e+001)
+( 2.697297e+004, 3.895803e-001,-3.812970e+001)
+( 2.762091e+004, 3.858593e-001,-3.882402e+001)
+( 2.828442e+004, 3.821150e-001,-3.954385e+001)
+( 2.896387e+004, 3.784204e-001,-4.025058e+001)
+( 2.965964e+004, 3.745775e-001,-4.097367e+001)
+( 3.037212e+004, 3.705336e-001,-4.168826e+001)
+( 3.110172e+004, 3.666481e-001,-4.241194e+001)
+( 3.184885e+004, 3.625553e-001,-4.311771e+001)
+( 3.261392e+004, 3.585787e-001,-4.384051e+001)
+( 3.339737e+004, 3.543945e-001,-4.456537e+001)
+( 3.419964e+004, 3.501588e-001,-4.528868e+001)
+( 3.502118e+004, 3.458361e-001,-4.600112e+001)
+( 3.586246e+004, 3.415525e-001,-4.673430e+001)
+( 3.672395e+004, 3.372110e-001,-4.742351e+001)
+( 3.760613e+004, 3.327873e-001,-4.814664e+001)
+( 3.850951e+004, 3.282899e-001,-4.886949e+001)
+( 3.943458e+004, 3.238186e-001,-4.959844e+001)
+( 4.038188e+004, 3.193146e-001,-5.029451e+001)
+( 4.135193e+004, 3.147927e-001,-5.101349e+001)
+( 4.234528e+004, 3.102506e-001,-5.169597e+001)
+( 4.336250e+004, 3.056702e-001,-5.240643e+001)
+( 4.440416e+004, 3.010827e-001,-5.310944e+001)
+( 4.547083e+004, 2.964809e-001,-5.378635e+001)
+( 4.656313e+004, 2.918964e-001,-5.448393e+001)
+( 4.768167e+004, 2.873426e-001,-5.515138e+001)
+( 4.882708e+004, 2.826779e-001,-5.585258e+001)
+( 5.000000e+004, 2.780320e-001,-5.653315e+001)
+( 5.120110e+004, 2.733960e-001,-5.715596e+001)
+( 5.243105e+004, 2.688262e-001,-5.784513e+001)
+( 5.369055e+004, 2.641809e-001,-5.850286e+001)
+( 5.498030e+004, 2.596088e-001,-5.912785e+001)
+( 5.630104e+004, 2.551552e-001,-5.976447e+001)
+( 5.765350e+004, 2.505543e-001,-6.039424e+001)
+( 5.903845e+004, 2.461401e-001,-6.101398e+001)
+( 6.045667e+004, 2.416933e-001,-6.163744e+001)
+( 6.190896e+004, 2.371058e-001,-6.225082e+001)
+( 6.339614e+004, 2.326756e-001,-6.285054e+001)
+( 6.491904e+004, 2.282242e-001,-6.346026e+001)
+( 6.647852e+004, 2.239901e-001,-6.403676e+001)
+( 6.807547e+004, 2.196754e-001,-6.460753e+001)
+( 6.971077e+004, 2.154355e-001,-6.517034e+001)
+( 7.138536e+004, 2.112107e-001,-6.576570e+001)
+( 7.310018e+004, 2.070241e-001,-6.632258e+001)
+( 7.485619e+004, 2.029137e-001,-6.683449e+001)
+( 7.665439e+004, 1.989087e-001,-6.739247e+001)
+( 7.849578e+004, 1.947299e-001,-6.791884e+001)
+( 8.038140e+004, 1.908835e-001,-6.843568e+001)
+( 8.231232e+004, 1.870230e-001,-6.894789e+001)
+( 8.428963e+004, 1.830724e-001,-6.943985e+001)
+( 8.631443e+004, 1.793000e-001,-6.997586e+001)
+( 8.838787e+004, 1.754566e-001,-7.041173e+001)
+( 9.051113e+004, 1.717716e-001,-7.089969e+001)
+( 9.268538e+004, 1.682540e-001,-7.140129e+001)
+( 9.491187e+004, 1.645593e-001,-7.182744e+001)
+( 9.719184e+004, 1.611413e-001,-7.229281e+001)
+( 9.952658e+004, 1.576863e-001,-7.273260e+001)
+( 1.019174e+005, 1.542767e-001,-7.316861e+001)
+( 1.043657e+005, 1.509308e-001,-7.359956e+001)
+( 1.068727e+005, 1.475522e-001,-7.401926e+001)
+( 1.094400e+005, 1.443752e-001,-7.446350e+001)
+( 1.120690e+005, 1.410768e-001,-7.486187e+001)
+( 1.147611e+005, 1.380482e-001,-7.526150e+001)
+( 1.175179e+005, 1.349151e-001,-7.565180e+001)
+( 1.203409e+005, 1.320522e-001,-7.600962e+001)
+( 1.232317e+005, 1.289972e-001,-7.637416e+001)
+( 1.261920e+005, 1.260633e-001,-7.680668e+001)
+( 1.292234e+005, 1.232808e-001,-7.715327e+001)
+( 1.323276e+005, 1.204989e-001,-7.750179e+001)
+( 1.355064e+005, 1.176315e-001,-7.783573e+001)
+( 1.387615e+005, 1.151201e-001,-7.817249e+001)
+( 1.420948e+005, 1.123925e-001,-7.850876e+001)
+( 1.455082e+005, 1.099343e-001,-7.890581e+001)
+( 1.490036e+005, 1.073577e-001,-7.922600e+001)
+( 1.525830e+005, 1.048708e-001,-7.945310e+001)
+( 1.562483e+005, 1.024180e-001,-7.991427e+001)
+( 1.600017e+005, 1.001389e-001,-8.010988e+001)
+( 1.638453e+005, 9.777325e-002,-8.046910e+001)
+( 1.677812e+005, 9.543129e-002,-8.069885e+001)
+( 1.718116e+005, 9.333629e-002,-8.102120e+001)
+( 1.759389e+005, 9.114298e-002,-8.130218e+001)
+( 1.801653e+005, 8.907865e-002,-8.155256e+001)
+( 1.844932e+005, 8.698116e-002,-8.181688e+001)
+( 1.889251e+005, 8.489394e-002,-8.209930e+001)
+( 1.934634e+005, 8.291862e-002,-8.231763e+001)
+( 1.981108e+005, 8.097739e-002,-8.268934e+001)
+( 2.028698e+005, 7.912667e-002,-8.289615e+001)
+( 2.077431e+005, 7.716375e-002,-8.320047e+001)
+( 2.127335e+005, 7.527907e-002,-8.346075e+001)
+( 2.178438e+005, 7.353005e-002,-8.369994e+001)
+( 2.230769e+005, 7.183230e-002,-8.393309e+001)
+( 2.284356e+005, 7.006293e-002,-8.409679e+001)
+( 2.339231e+005, 6.847317e-002,-8.433280e+001)
+( 2.395424e+005, 6.679850e-002,-8.455139e+001)
+( 2.452967e+005, 6.524807e-002,-8.475667e+001)
+( 2.511892e+005, 6.362137e-002,-8.496076e+001)
+( 2.572232e+005, 6.209262e-002,-8.527147e+001)
+( 2.634023e+005, 6.066803e-002,-8.539083e+001)
+( 2.697297e+005, 5.906795e-002,-8.557516e+001)
+( 2.762091e+005, 5.773283e-002,-8.587236e+001)
+( 2.828442e+005, 5.633705e-002,-8.608956e+001)
+( 2.896387e+005, 5.498363e-002,-8.630418e+001)
+( 2.965964e+005, 5.353214e-002,-8.656036e+001)
+( 3.037212e+005, 5.209798e-002,-8.662765e+001)
+( 3.110172e+005, 5.084952e-002,-8.675654e+001)
+( 3.184885e+005, 4.951000e-002,-8.710130e+001)
+( 3.261392e+005, 4.830629e-002,-8.721507e+001)
+( 3.339737e+005, 4.698916e-002,-8.732097e+001)
+( 3.419964e+005, 4.584409e-002,-8.750854e+001)
+( 3.502118e+005, 4.496817e-002,-8.772162e+001)
+( 3.586246e+005, 4.393504e-002,-8.767300e+001)
+( 3.672395e+005, 4.302022e-002,-8.800266e+001)
+( 3.760613e+005, 4.179876e-002,-8.827514e+001)
+( 3.850951e+005, 4.075647e-002,-8.852778e+001)
+( 3.943458e+005, 3.975120e-002,-8.858239e+001)
+( 4.038188e+005, 3.878227e-002,-8.859769e+001)
+( 4.135193e+005, 3.780421e-002,-8.885509e+001)
+( 4.234528e+005, 3.687384e-002,-8.870545e+001)
+( 4.336250e+005, 3.599676e-002,-8.912632e+001)
+( 4.440416e+005, 3.498123e-002,-8.945890e+001)
+( 4.547083e+005, 3.406658e-002,-8.961604e+001)
+( 4.656313e+005, 3.321654e-002,-8.965733e+001)
+( 4.768167e+005, 3.240220e-002,-9.001008e+001)
+( 4.882708e+005, 3.164063e-002,-8.997847e+001)
+( 5.000000e+005, 3.080320e-002,-9.020299e+001)
+( 5.120110e+005, 3.000141e-002,-9.036389e+001)
+( 5.243105e+005, 2.923866e-002,-9.051303e+001)
+( 5.369055e+005, 2.863984e-002,-9.062011e+001)
+( 5.498030e+005, 2.789132e-002,-9.065916e+001)
+( 5.630104e+005, 2.717224e-002,-9.100668e+001)
+( 5.765350e+005, 2.643681e-002,-9.127614e+001)
+( 5.903845e+005, 2.572284e-002,-9.140875e+001)
+( 6.045667e+005, 2.500753e-002,-9.157379e+001)
+( 6.190896e+005, 2.435159e-002,-9.172692e+001)
+( 6.339614e+005, 2.372312e-002,-9.172932e+001)
+( 6.491904e+005, 2.307385e-002,-9.186990e+001)
+( 6.647852e+005, 2.249051e-002,-9.188500e+001)
+( 6.807547e+005, 2.202499e-002,-9.197162e+001)
+( 6.971077e+005, 2.136052e-002,-9.230353e+001)
+( 7.138536e+005, 2.067146e-002,-9.230685e+001)
+( 7.310018e+005, 2.018199e-002,-9.273356e+001)
+( 7.485619e+005, 1.954029e-002,-9.317912e+001)
+( 7.665439e+005, 1.909631e-002,-9.318676e+001)
+( 7.849578e+005, 1.859078e-002,-9.378826e+001)
+( 8.038140e+005, 1.803938e-002,-9.369271e+001)
+( 8.231232e+005, 1.746900e-002,-9.377878e+001)
+( 8.428963e+005, 1.702758e-002,-9.427114e+001)
+( 8.631443e+005, 1.650383e-002,-9.383168e+001)
+( 8.838787e+005, 1.603571e-002,-9.437928e+001)
+( 9.051113e+005, 1.552027e-002,-9.448138e+001)
+( 9.268538e+005, 1.502904e-002,-9.435647e+001)
+( 9.491187e+005, 1.468184e-002,-9.493227e+001)
+( 9.719184e+005, 1.428689e-002,-9.517444e+001)
+( 9.952658e+005, 1.390612e-002,-9.512390e+001)
+( 1.019174e+006, 1.332697e-002,-9.524102e+001)
+( 1.043657e+006, 1.293108e-002,-9.577411e+001)
+( 1.068727e+006, 1.270363e-002,-9.552145e+001)
+( 1.094400e+006, 1.230539e-002,-9.581877e+001)
+( 1.120690e+006, 1.188353e-002,-9.619359e+001)
+( 1.147611e+006, 1.139393e-002,-9.673838e+001)
+( 1.175179e+006, 1.086662e-002,-9.689294e+001)
+( 1.203409e+006, 1.042921e-002,-9.714227e+001)
+( 1.232317e+006, 1.016974e-002,-9.837984e+001)
+( 1.261920e+006, 9.951852e-003,-9.745821e+001)
+( 1.292234e+006, 9.554475e-003,-9.790344e+001)
+( 1.323276e+006, 9.301706e-003,-9.762339e+001)
+( 1.355064e+006, 8.784067e-003,-9.777119e+001)
+( 1.387615e+006, 8.412624e-003,-9.798497e+001)
+( 1.420948e+006, 8.016927e-003,-9.813538e+001)
+( 1.455082e+006, 7.794067e-003,-9.757558e+001)
+( 1.490036e+006, 7.474795e-003,-9.810999e+001)
+( 1.525830e+006, 7.241527e-003,-9.834364e+001)
+( 1.562483e+006, 6.856292e-003,-9.890679e+001)
+( 1.600017e+006, 6.698247e-003,-9.865539e+001)
+( 1.638453e+006, 6.482256e-003,-9.891292e+001)
+( 1.677812e+006, 6.045424e-003,-9.910536e+001)
+( 1.718116e+006, 5.865815e-003,-9.908029e+001)
+( 1.759389e+006, 5.577267e-003,-9.978213e+001)
+( 1.801653e+006, 5.160769e-003,-1.029475e+002)
+( 1.844932e+006, 4.883896e-003,-1.037289e+002)
+( 1.889251e+006, 4.627787e-003,-1.047184e+002)
+( 1.934634e+006, 4.286563e-003,-1.072884e+002)
+( 1.981108e+006, 3.953592e-003,-1.074328e+002)
+( 2.028698e+006, 3.563703e-003,-1.081670e+002)
+( 2.077431e+006, 3.423259e-003,-1.111919e+002)
+( 2.127335e+006, 3.222801e-003,-1.135058e+002)
+( 2.178438e+006, 2.898128e-003,-1.125142e+002)
+( 2.230769e+006, 2.610326e-003,-1.151078e+002)
+( 2.284356e+006, 2.386020e-003,-1.167005e+002)
+( 2.339231e+006, 2.212382e-003,-1.220733e+002)
+( 2.395424e+006, 1.998923e-003,-1.231873e+002)
+( 2.452967e+006, 1.716176e-003,-1.255284e+002)
+( 2.511892e+006, 1.403672e-003,-1.294460e+002)
+( 2.572232e+006, 1.358349e-003,-1.376851e+002)
+( 2.634023e+006, 1.101403e-003,-1.461233e+002)
+( 2.697297e+006, 1.143478e-003,-1.566205e+002)
+( 2.762091e+006, 9.275487e-004,-1.720415e+002)
+( 2.828442e+006, 9.390324e-004,-1.809131e+002)
+( 2.896387e+006, 1.096633e-003,-2.022838e+002)
+( 2.965964e+006, 1.166592e-003,-2.087248e+002)
+( 3.037212e+006, 1.379330e-003,-2.242845e+002)
+( 3.110172e+006, 1.534932e-003,-2.302301e+002)
+( 3.184885e+006, 1.414009e-003,-2.252860e+002)
+( 3.261392e+006, 1.574060e-003,-2.311843e+002)
+( 3.339737e+006, 1.786717e-003,-2.336329e+002)
+( 3.419964e+006, 1.992795e-003,-2.450368e+002)
+( 3.502118e+006, 2.101630e-003,-2.462947e+002)
+( 3.586246e+006, 2.390989e-003,-2.480075e+002)
+( 3.672395e+006, 2.573344e-003,-2.500829e+002)
+( 3.760613e+006, 2.945702e-003,-2.550584e+002)
+( 3.850951e+006, 3.201071e-003,-2.577549e+002)
+( 3.943458e+006, 3.478542e-003,-2.546827e+002)
+( 4.038188e+006, 3.659680e-003,-2.633440e+002)
+( 4.135193e+006, 3.879929e-003,-2.600689e+002)
+( 4.234528e+006, 4.252195e-003,-2.607189e+002)
+( 4.336250e+006, 4.469094e-003,-2.616014e+002)
+( 4.440416e+006, 4.602577e-003,-2.646371e+002)