* LTspice File
* 
**************************************************
* Manufacturer:           Würth Elektronik 
* Kinds:                  Line Filter
* Matchcode:              WE-CLFS
* Library Type:           LTspice
* Version:                rev25a
* Created/modified by:    Alexander E.     
* Date and Time:          2025-05-23
* Team:                   PM eiSos EMC & SIPI  
* Contact:                libraries@we-online.com
**************************************************
* Copyright(C) 2025 Würth Elektronik eiSos GmbH & Co. KG
* All Rights Reserved.
**************************************************
* Disclaimer: While Würth Elektronik eiSos has made every reasonable effort to ensure the accuracy
* of the simulation models provided, Würth Elektronik eiSos does not guarantee the exemption of error on
* the simulation models, nor does Würth Elektronik eiSos guarantee that the simulation model is current.
* Würth Elektronik eiSos reserves the right to make any adjustments at any time without notice.
* Würth Elektronik eiSos expressly disclaims all implied warranties regarding this simulation model.
**************************************************
*
*Important Notice for Use:
*
*This model is based on directly measured S-parameters (amplitude and phase) and is intended exclusively
*for AC analysis within the measured frequency range.
*Transient simulations or usage beyond the measured frequency range are not supported by this model,
*although they may technically be performed. However, such use may result in *inaccurate behavior or
*convergence issues during simulation.
*Therefore, operation outside the specified frequency range is not recommended and should only be
*considered after careful evaluation.
*
**************************************************
*
*
.SUBCKT 810913006112 1 2 3 4 5 
*
* GHz S MA R 50.000000
* Terminal data exported
* Port[1] = Port1
* Port[2] = Port2
* Port[3] = Port3
* Port[4] = Port4
* Z1=50.000000 Z2=50.000000 Z3=50.000000 Z4=50.000000

R1N 1 10 -5.000000e+001
R1P 10 11 1.000000e+002
R2N 2 20 -5.000000e+001
R2P 20 21 1.000000e+002
R3N 3 30 -5.000000e+001
R3P 30 31 1.000000e+002
R4N 4 40 -5.000000e+001
R4P 40 41 1.000000e+002

*S11 FREQ MAG PHASE
E11 11 12 FREQ {V(10,5)}= MAG
+( 5.000000e+000, 4.024552e-003, 8.618054e+001)
+( 5.120110e+000, 4.120689e-003, 8.507166e+001)
+( 5.243105e+000, 4.218758e-003, 8.422036e+001)
+( 5.369055e+000, 4.317594e-003, 8.454261e+001)
+( 5.498030e+000, 4.420005e-003, 8.476077e+001)
+( 5.630104e+000, 4.526064e-003, 8.487772e+001)
+( 5.765350e+000, 4.630466e-003, 8.546887e+001)
+( 5.903845e+000, 4.736700e-003, 8.636436e+001)
+( 6.045667e+000, 4.848083e-003, 8.774485e+001)
+( 6.190896e+000, 4.963098e-003, 8.941397e+001)
+( 6.339614e+000, 5.082060e-003, 9.082468e+001)
+( 6.491904e+000, 5.206321e-003, 9.079921e+001)
+( 6.647852e+000, 5.333036e-003, 9.101772e+001)
+( 6.807547e+000, 5.461922e-003, 9.117087e+001)
+( 6.971077e+000, 5.590542e-003, 9.017520e+001)
+( 7.138536e+000, 5.722478e-003, 8.924429e+001)
+( 7.310018e+000, 5.858519e-003, 8.864037e+001)
+( 7.485619e+000, 6.000514e-003, 8.802445e+001)
+( 7.665439e+000, 6.148443e-003, 8.740221e+001)
+( 7.849578e+000, 6.298213e-003, 8.690126e+001)
+( 8.038140e+000, 6.450599e-003, 8.651033e+001)
+( 8.231232e+000, 6.604951e-003, 8.641830e+001)
+( 8.428963e+000, 6.764078e-003, 8.616421e+001)
+( 8.631443e+000, 6.927435e-003, 8.589810e+001)
+( 8.838787e+000, 7.093464e-003, 8.605290e+001)
+( 9.051113e+000, 7.261949e-003, 8.622350e+001)
+( 9.268538e+000, 7.433051e-003, 8.630542e+001)
+( 9.491187e+000, 7.606555e-003, 8.617923e+001)
+( 9.719184e+000, 7.791068e-003, 8.602361e+001)
+( 9.952658e+000, 7.984175e-003, 8.585140e+001)
+( 1.019174e+001, 8.178011e-003, 8.563916e+001)
+( 1.043657e+001, 8.375428e-003, 8.542309e+001)
+( 1.068727e+001, 8.577710e-003, 8.529418e+001)
+( 1.094400e+001, 8.784273e-003, 8.517916e+001)
+( 1.120690e+001, 8.994919e-003, 8.508609e+001)
+( 1.147611e+001, 9.209439e-003, 8.507912e+001)
+( 1.175179e+001, 9.430076e-003, 8.505311e+001)
+( 1.203409e+001, 9.659395e-003, 8.491066e+001)
+( 1.232317e+001, 9.892156e-003, 8.471324e+001)
+( 1.261920e+001, 1.013727e-002, 8.450546e+001)
+( 1.292234e+001, 1.040116e-002, 8.430843e+001)
+( 1.323276e+001, 1.064435e-002, 8.421939e+001)
+( 1.355064e+001, 1.088384e-002, 8.416849e+001)
+( 1.387615e+001, 1.114307e-002, 8.408399e+001)
+( 1.420948e+001, 1.141084e-002, 8.398040e+001)
+( 1.455082e+001, 1.168538e-002, 8.379583e+001)
+( 1.490036e+001, 1.196535e-002, 8.372169e+001)
+( 1.525830e+001, 1.225057e-002, 8.379125e+001)
+( 1.562483e+001, 1.254296e-002, 8.377021e+001)
+( 1.600017e+001, 1.284274e-002, 8.371521e+001)
+( 1.638453e+001, 1.315052e-002, 8.364767e+001)
+( 1.677812e+001, 1.346983e-002, 8.363589e+001)
+( 1.718116e+001, 1.379375e-002, 8.363200e+001)
+( 1.759389e+001, 1.411443e-002, 8.359556e+001)
+( 1.801653e+001, 1.444178e-002, 8.348021e+001)
+( 1.844932e+001, 1.478179e-002, 8.338112e+001)
+( 1.889251e+001, 1.514345e-002, 8.336780e+001)
+( 1.934634e+001, 1.550983e-002, 8.334482e+001)
+( 1.981108e+001, 1.587952e-002, 8.330610e+001)
+( 2.028698e+001, 1.625915e-002, 8.325665e+001)
+( 2.077431e+001, 1.664836e-002, 8.319199e+001)
+( 2.127335e+001, 1.704651e-002, 8.306260e+001)
+( 2.178438e+001, 1.745451e-002, 8.294724e+001)
+( 2.230769e+001, 1.787256e-002, 8.286357e+001)
+( 2.284356e+001, 1.829857e-002, 8.283196e+001)
+( 2.339231e+001, 1.873516e-002, 8.276420e+001)
+( 2.395424e+001, 1.918144e-002, 8.263273e+001)
+( 2.452967e+001, 1.961419e-002, 8.257537e+001)
+( 2.511892e+001, 2.007221e-002, 8.251282e+001)
+( 2.572232e+001, 2.057099e-002, 8.242755e+001)
+( 2.634023e+001, 2.107265e-002, 8.230699e+001)
+( 2.697297e+001, 2.157752e-002, 8.215352e+001)
+( 2.762091e+001, 2.209502e-002, 8.202100e+001)
+( 2.828442e+001, 2.262457e-002, 8.189939e+001)
+( 2.896387e+001, 2.316239e-002, 8.180946e+001)
+( 2.965964e+001, 2.371325e-002, 8.172107e+001)
+( 3.037212e+001, 2.427782e-002, 8.163077e+001)
+( 3.110172e+001, 2.485530e-002, 8.151162e+001)
+( 3.184885e+001, 2.544578e-002, 8.139682e+001)
+( 3.261392e+001, 2.604915e-002, 8.130477e+001)
+( 3.339737e+001, 2.666870e-002, 8.118040e+001)
+( 3.419964e+001, 2.729983e-002, 8.108304e+001)
+( 3.502118e+001, 2.794229e-002, 8.102075e+001)
+( 3.586246e+001, 2.860630e-002, 8.087903e+001)
+( 3.672395e+001, 2.928713e-002, 8.072420e+001)
+( 3.760613e+001, 2.998276e-002, 8.060279e+001)
+( 3.850951e+001, 3.069378e-002, 8.047486e+001)
+( 3.943458e+001, 3.141929e-002, 8.033523e+001)
+( 4.038188e+001, 3.216328e-002, 8.019499e+001)
+( 4.135193e+001, 3.292590e-002, 8.004797e+001)
+( 4.234528e+001, 3.370795e-002, 7.987121e+001)
+( 4.336250e+001, 3.450692e-002, 7.971443e+001)
+( 4.440416e+001, 3.532260e-002, 7.958025e+001)
+( 4.547083e+001, 3.615418e-002, 7.945048e+001)
+( 4.656313e+001, 3.699765e-002, 7.929455e+001)
+( 4.768167e+001, 3.785732e-002, 7.911842e+001)
+( 4.882708e+001, 3.875859e-002, 7.893771e+001)
+( 5.000000e+001, 3.968151e-002, 7.875368e+001)
+( 5.120110e+001, 4.061773e-002, 7.857157e+001)
+( 5.243105e+001, 4.157466e-002, 7.837924e+001)
+( 5.369055e+001, 4.255159e-002, 7.817309e+001)
+( 5.498030e+001, 4.354921e-002, 7.798866e+001)
+( 5.630104e+001, 4.456877e-002, 7.781518e+001)
+( 5.765350e+001, 4.560914e-002, 7.764855e+001)
+( 5.903845e+001, 4.667438e-002, 7.746840e+001)
+( 6.045667e+001, 4.776522e-002, 7.727180e+001)
+( 6.190896e+001, 4.888049e-002, 7.706476e+001)
+( 6.339614e+001, 5.002130e-002, 7.685809e+001)
+( 6.491904e+001, 5.119109e-002, 7.665434e+001)
+( 6.647852e+001, 5.240073e-002, 7.645460e+001)
+( 6.807547e+001, 5.362354e-002, 7.623999e+001)
+( 6.971077e+001, 5.485808e-002, 7.600894e+001)
+( 7.138536e+001, 5.611940e-002, 7.577119e+001)
+( 7.310018e+001, 5.740969e-002, 7.552714e+001)
+( 7.485619e+001, 5.873219e-002, 7.527692e+001)
+( 7.665439e+001, 6.008565e-002, 7.502083e+001)
+( 7.849578e+001, 6.146921e-002, 7.475905e+001)
+( 8.038140e+001, 6.287748e-002, 7.450506e+001)
+( 8.231232e+001, 6.431592e-002, 7.424858e+001)
+( 8.428963e+001, 6.578988e-002, 7.397478e+001)
+( 8.631443e+001, 6.729233e-002, 7.368617e+001)
+( 8.838787e+001, 6.883973e-002, 7.338861e+001)
+( 9.051113e+001, 7.045942e-002, 7.308933e+001)
+( 9.268538e+001, 7.207222e-002, 7.278542e+001)
+( 9.491187e+001, 7.369280e-002, 7.247575e+001)
+( 9.719184e+001, 7.534525e-002, 7.216383e+001)
+( 9.952658e+001, 7.702931e-002, 7.184796e+001)
+( 1.019174e+002, 7.864110e-002, 7.156058e+001)
+( 1.043657e+002, 8.033146e-002, 7.125437e+001)
+( 1.068727e+002, 8.216663e-002, 7.090935e+001)
+( 1.094400e+002, 8.402923e-002, 7.055610e+001)
+( 1.120690e+002, 8.592487e-002, 7.019649e+001)
+( 1.147611e+002, 8.784989e-002, 6.983794e+001)
+( 1.175179e+002, 8.980882e-002, 6.947006e+001)
+( 1.203409e+002, 9.180385e-002, 6.909476e+001)
+( 1.232317e+002, 9.383392e-002, 6.871956e+001)
+( 1.261920e+002, 9.590866e-002, 6.833241e+001)
+( 1.292234e+002, 9.802400e-002, 6.793425e+001)
+( 1.323276e+002, 1.001489e-001, 6.752505e+001)
+( 1.355064e+002, 1.023169e-001, 6.710875e+001)
+( 1.387615e+002, 1.045250e-001, 6.668844e+001)
+( 1.420948e+002, 1.067681e-001, 6.626297e+001)
+( 1.455082e+002, 1.090498e-001, 6.583072e+001)
+( 1.490036e+002, 1.113652e-001, 6.538565e+001)
+( 1.525830e+002, 1.137256e-001, 6.492900e+001)
+( 1.562483e+002, 1.161278e-001, 6.446056e+001)
+( 1.600017e+002, 1.185578e-001, 6.398521e+001)
+( 1.638453e+002, 1.210295e-001, 6.350056e+001)
+( 1.677812e+002, 1.235437e-001, 6.300597e+001)
+( 1.718116e+002, 1.259545e-001, 6.245265e+001)
+( 1.759389e+002, 1.284514e-001, 6.191027e+001)
+( 1.801653e+002, 1.311703e-001, 6.144546e+001)
+( 1.844932e+002, 1.338958e-001, 6.095256e+001)
+( 1.889251e+002, 1.365868e-001, 6.041639e+001)
+( 1.934634e+002, 1.393016e-001, 5.986911e+001)
+( 1.981108e+002, 1.420530e-001, 5.931055e+001)
+( 2.028698e+002, 1.448276e-001, 5.874498e+001)
+( 2.077431e+002, 1.476458e-001, 5.816682e+001)
+( 2.127335e+002, 1.504944e-001, 5.757473e+001)
+( 2.178438e+002, 1.533654e-001, 5.697909e+001)
+( 2.230769e+002, 1.562721e-001, 5.637442e+001)
+( 2.284356e+002, 1.592007e-001, 5.575864e+001)
+( 2.339231e+002, 1.621434e-001, 5.513889e+001)
+( 2.395424e+002, 1.649073e-001, 5.447780e+001)
+( 2.452967e+002, 1.673140e-001, 5.374634e+001)
+( 2.511892e+002, 1.705625e-001, 5.313148e+001)
+( 2.572232e+002, 1.741638e-001, 5.254945e+001)
+( 2.634023e+002, 1.772307e-001, 5.188760e+001)
+( 2.697297e+002, 1.802982e-001, 5.120646e+001)
+( 2.762091e+002, 1.833749e-001, 5.051922e+001)
+( 2.828442e+002, 1.864645e-001, 4.982245e+001)
+( 2.896387e+002, 1.895671e-001, 4.911594e+001)
+( 2.965964e+002, 1.926728e-001, 4.840059e+001)
+( 3.037212e+002, 1.957983e-001, 4.767384e+001)
+( 3.110172e+002, 1.989279e-001, 4.693710e+001)
+( 3.184885e+002, 2.020436e-001, 4.619426e+001)
+( 3.261392e+002, 2.048188e-001, 4.542589e+001)
+( 3.339737e+002, 2.072019e-001, 4.462734e+001)
+( 3.419964e+002, 2.107596e-001, 4.387957e+001)
+( 3.502118e+002, 2.145423e-001, 4.312525e+001)
+( 3.586246e+002, 2.176205e-001, 4.234497e+001)
+( 3.672395e+002, 2.206942e-001, 4.155092e+001)
+( 3.760613e+002, 2.237310e-001, 4.075323e+001)
+( 3.850951e+002, 2.267547e-001, 3.994708e+001)
+( 3.943458e+002, 2.297694e-001, 3.913148e+001)
+( 4.038188e+002, 2.327281e-001, 3.831001e+001)
+( 4.135193e+002, 2.356839e-001, 3.747838e+001)
+( 4.234528e+002, 2.386151e-001, 3.664017e+001)
+( 4.336250e+002, 2.414869e-001, 3.579760e+001)
+( 4.440416e+002, 2.443354e-001, 3.494777e+001)
+( 4.547083e+002, 2.470737e-001, 3.409342e+001)
+( 4.656313e+002, 2.490027e-001, 3.323555e+001)
+( 4.768167e+002, 2.514512e-001, 3.236387e+001)
+( 4.882708e+002, 2.549636e-001, 3.147900e+001)
+( 5.000000e+002, 2.579694e-001, 3.059172e+001)
+( 5.120110e+002, 2.605552e-001, 2.969889e+001)
+( 5.243105e+002, 2.630557e-001, 2.880776e+001)
+( 5.369055e+002, 2.655523e-001, 2.790522e+001)
+( 5.498030e+002, 2.679669e-001, 2.700310e+001)
+( 5.630104e+002, 2.703266e-001, 2.609214e+001)
+( 5.765350e+002, 2.726262e-001, 2.517384e+001)
+( 5.903845e+002, 2.748207e-001, 2.425963e+001)
+( 6.045667e+002, 2.769697e-001, 2.333785e+001)
+( 6.190896e+002, 2.788879e-001, 2.242516e+001)
+( 6.339614e+002, 2.798807e-001, 2.158848e+001)
+( 6.491904e+002, 2.816881e-001, 2.066177e+001)
+( 6.647852e+002, 2.845193e-001, 1.962480e+001)
+( 6.807547e+002, 2.866617e-001, 1.864303e+001)
+( 6.971077e+002, 2.884048e-001, 1.768578e+001)
+( 7.138536e+002, 2.900226e-001, 1.673622e+001)
+( 7.310018e+002, 2.916099e-001, 1.577521e+001)
+( 7.485619e+002, 2.930560e-001, 1.481755e+001)
+( 7.665439e+002, 2.944128e-001, 1.385286e+001)
+( 7.849578e+002, 2.956845e-001, 1.288148e+001)
+( 8.038140e+002, 2.968851e-001, 1.190971e+001)
+( 8.231232e+002, 2.980180e-001, 1.093369e+001)
+( 8.428963e+002, 2.990622e-001, 9.955405e+000)
+( 8.631443e+002, 2.999810e-001, 8.975800e+000)
+( 8.838787e+002, 3.004335e-001, 8.096826e+000)
+( 9.051113e+002, 3.006461e-001, 7.260294e+000)
+( 9.268538e+002, 3.017872e-001, 6.144068e+000)
+( 9.491187e+002, 3.028757e-001, 5.016859e+000)
+( 9.719184e+002, 3.033485e-001, 4.017396e+000)
+( 9.952658e+002, 3.037249e-001, 3.017313e+000)
+( 1.019174e+003, 3.039965e-001, 2.017368e+000)
+( 1.043657e+003, 3.041756e-001, 1.015527e+000)
+( 1.068727e+003, 3.042915e-001, 3.857830e-003)
+( 1.094400e+003, 3.042591e-001,-1.002390e+000)
+( 1.120690e+003, 3.041357e-001,-2.010247e+000)
+( 1.147611e+003, 3.039357e-001,-3.024051e+000)
+( 1.175179e+003, 3.036476e-001,-4.041949e+000)
+( 1.203409e+003, 3.031913e-001,-4.989126e+000)
+( 1.232317e+003, 3.026558e-001,-5.944297e+000)
+( 1.261920e+003, 3.020860e-001,-7.029806e+000)
+( 1.292234e+003, 3.014502e-001,-8.114570e+000)
+( 1.323276e+003, 3.006734e-001,-9.135023e+000)
+( 1.355064e+003, 2.997914e-001,-1.015836e+001)
+( 1.387615e+003, 2.988003e-001,-1.118590e+001)
+( 1.420948e+003, 2.977227e-001,-1.220939e+001)
+( 1.455082e+003, 2.965766e-001,-1.324207e+001)
+( 1.490036e+003, 2.952900e-001,-1.426807e+001)
+( 1.525830e+003, 2.939169e-001,-1.529373e+001)
+( 1.562483e+003, 2.924619e-001,-1.632230e+001)
+( 1.600017e+003, 2.909157e-001,-1.735160e+001)
+( 1.638453e+003, 2.892633e-001,-1.837624e+001)
+( 1.677812e+003, 2.874292e-001,-1.939142e+001)
+( 1.718116e+003, 2.852561e-001,-2.038014e+001)
+( 1.759389e+003, 2.834020e-001,-2.140862e+001)
+( 1.801653e+003, 2.817514e-001,-2.247325e+001)
+( 1.844932e+003, 2.797422e-001,-2.349835e+001)
+( 1.889251e+003, 2.775974e-001,-2.452692e+001)
+( 1.934634e+003, 2.753711e-001,-2.553971e+001)
+( 1.981108e+003, 2.730716e-001,-2.655787e+001)
+( 2.028698e+003, 2.706871e-001,-2.757209e+001)
+( 2.077431e+003, 2.682157e-001,-2.858031e+001)
+( 2.127335e+003, 2.656776e-001,-2.959187e+001)
+( 2.178438e+003, 2.630856e-001,-3.059651e+001)
+( 2.230769e+003, 2.604271e-001,-3.159152e+001)
+( 2.284356e+003, 2.577919e-001,-3.255888e+001)
+( 2.339231e+003, 2.552702e-001,-3.346828e+001)
+( 2.395424e+003, 2.523611e-001,-3.448251e+001)
+( 2.452967e+003, 2.492577e-001,-3.555250e+001)
+( 2.511892e+003, 2.462920e-001,-3.652842e+001)
+( 2.572232e+003, 2.432902e-001,-3.750585e+001)
+( 2.634023e+003, 2.402533e-001,-3.847295e+001)
+( 2.697297e+003, 2.371730e-001,-3.943810e+001)
+( 2.762091e+003, 2.340596e-001,-4.039124e+001)
+( 2.828442e+003, 2.309069e-001,-4.133001e+001)
+( 2.896387e+003, 2.277087e-001,-4.227008e+001)
+( 2.965964e+003, 2.244971e-001,-4.320257e+001)
+( 3.037212e+003, 2.212917e-001,-4.412269e+001)
+( 3.110172e+003, 2.180533e-001,-4.504222e+001)
+( 3.184885e+003, 2.147689e-001,-4.595806e+001)
+( 3.261392e+003, 2.115933e-001,-4.680513e+001)
+( 3.339737e+003, 2.083547e-001,-4.767143e+001)
+( 3.419964e+003, 2.049670e-001,-4.860738e+001)
+( 3.502118e+003, 2.015884e-001,-4.951841e+001)
+( 3.586246e+003, 1.982573e-001,-5.038363e+001)
+( 3.672395e+003, 1.949449e-001,-5.124262e+001)
+( 3.760613e+003, 1.916115e-001,-5.210558e+001)
+( 3.850951e+003, 1.883499e-001,-5.293852e+001)
+( 3.943458e+003, 1.850528e-001,-5.377054e+001)
+( 4.038188e+003, 1.817364e-001,-5.459352e+001)
+( 4.135193e+003, 1.784628e-001,-5.539534e+001)
+( 4.234528e+003, 1.751902e-001,-5.619753e+001)
+( 4.336250e+003, 1.719392e-001,-5.700719e+001)
+( 4.440416e+003, 1.688141e-001,-5.784816e+001)
+( 4.547083e+003, 1.656341e-001,-5.864996e+001)
+( 4.656313e+003, 1.623471e-001,-5.935488e+001)
+( 4.768167e+003, 1.591290e-001,-6.008030e+001)
+( 4.882708e+003, 1.559797e-001,-6.082666e+001)
+( 5.000000e+003, 1.529061e-001,-6.155772e+001)
+( 5.120110e+003, 1.498201e-001,-6.229264e+001)
+( 5.243105e+003, 1.468186e-001,-6.300503e+001)
+( 5.369055e+003, 1.437896e-001,-6.371245e+001)
+( 5.498030e+003, 1.407784e-001,-6.440639e+001)
+( 5.630104e+003, 1.380691e-001,-6.512806e+001)
+( 5.765350e+003, 1.352511e-001,-6.582723e+001)
+( 5.903845e+003, 1.320912e-001,-6.645751e+001)
+( 6.045667e+003, 1.291888e-001,-6.710567e+001)
+( 6.190896e+003, 1.264144e-001,-6.783181e+001)
+( 6.339614e+003, 1.237092e-001,-6.864652e+001)
+( 6.491904e+003, 1.209455e-001,-6.917401e+001)
+( 6.647852e+003, 1.181468e-001,-6.967451e+001)
+( 6.807547e+003, 1.155279e-001,-7.029865e+001)
+( 6.971077e+003, 1.129097e-001,-7.092083e+001)
+( 7.138536e+003, 1.103274e-001,-7.150713e+001)
+( 7.310018e+003, 1.077826e-001,-7.209533e+001)
+( 7.485619e+003, 1.052484e-001,-7.268824e+001)
+( 7.665439e+003, 1.027927e-001,-7.326964e+001)
+( 7.849578e+003, 1.003609e-001,-7.385046e+001)
+( 8.038140e+003, 9.796111e-002,-7.442799e+001)
+( 8.231232e+003, 9.560207e-002,-7.499321e+001)
+( 8.428963e+003, 9.328049e-002,-7.554577e+001)
+( 8.631443e+003, 9.097849e-002,-7.609209e+001)
+( 8.838787e+003, 8.877565e-002,-7.662281e+001)
+( 9.051113e+003, 8.656773e-002,-7.715778e+001)
+( 9.268538e+003, 8.441331e-002,-7.768748e+001)
+( 9.491187e+003, 8.227070e-002,-7.821630e+001)
+( 9.719184e+003, 8.017307e-002,-7.873673e+001)
+( 9.952658e+003, 7.811556e-002,-7.925494e+001)
+( 1.019174e+004, 7.673699e-002,-7.729426e+001)
+( 1.043657e+004, 7.477137e-002,-7.759953e+001)
+( 1.068727e+004, 7.277972e-002,-7.803627e+001)
+( 1.094400e+004, 7.084507e-002,-7.836032e+001)
+( 1.120690e+004, 6.889036e-002,-7.894179e+001)
+( 1.147611e+004, 6.697259e-002,-7.915991e+001)
+( 1.175179e+004, 6.503671e-002,-7.930687e+001)
+( 1.203409e+004, 6.313724e-002,-7.986466e+001)
+( 1.232317e+004, 6.138251e-002,-8.022398e+001)
+( 1.261920e+004, 5.972614e-002,-8.057638e+001)
+( 1.292234e+004, 5.801202e-002,-8.104307e+001)
+( 1.323276e+004, 5.628695e-002,-8.134855e+001)
+( 1.355064e+004, 5.461852e-002,-8.165400e+001)
+( 1.387615e+004, 5.293231e-002,-8.207025e+001)
+( 1.420948e+004, 5.129585e-002,-8.237667e+001)
+( 1.455082e+004, 4.970709e-002,-8.248064e+001)
+( 1.490036e+004, 4.806588e-002,-8.313085e+001)
+( 1.525830e+004, 4.650872e-002,-8.332991e+001)
+( 1.562483e+004, 4.493855e-002,-8.377427e+001)
+( 1.600017e+004, 4.339315e-002,-8.399345e+001)
+( 1.638453e+004, 4.186325e-002,-8.420607e+001)
+( 1.677812e+004, 4.039803e-002,-8.429180e+001)
+( 1.718116e+004, 3.893143e-002,-8.480038e+001)
+( 1.759389e+004, 3.747639e-002,-8.510464e+001)
+( 1.801653e+004, 3.600609e-002,-8.531712e+001)
+( 1.844932e+004, 3.458789e-002,-8.563609e+001)
+( 1.889251e+004, 3.316683e-002,-8.593733e+001)
+( 1.934634e+004, 3.176525e-002,-8.632693e+001)
+( 1.981108e+004, 3.036545e-002,-8.636594e+001)
+( 2.028698e+004, 2.550177e-002,-8.591685e+001)
+( 2.077431e+004, 2.409643e-002,-8.680799e+001)
+( 2.127335e+004, 2.268951e-002,-8.661498e+001)
+( 2.178438e+004, 2.167184e-002,-8.709992e+001)
+( 2.230769e+004, 2.033948e-002,-8.736940e+001)
+( 2.284356e+004, 1.906879e-002,-8.763161e+001)
+( 2.339231e+004, 1.772497e-002,-8.785040e+001)
+( 2.395424e+004, 1.650091e-002,-8.832039e+001)
+( 2.452967e+004, 1.493683e-002,-8.792716e+001)
+( 2.511892e+004, 1.372197e-002,-8.866978e+001)
+( 2.572232e+004, 1.254252e-002,-8.831721e+001)
+( 2.634023e+004, 1.108780e-002,-8.836922e+001)
+( 2.697297e+004, 9.738972e-003,-8.836785e+001)
+( 2.762091e+004, 8.423994e-003,-8.966559e+001)
+( 2.828442e+004, 7.022910e-003,-8.830162e+001)
+( 2.896387e+004, 5.605239e-003,-8.684422e+001)
+( 2.965964e+004, 4.252644e-003,-8.634007e+001)
+( 3.037212e+004, 2.718190e-003,-8.285445e+001)
+( 3.110172e+004, 1.343306e-003,-6.952671e+001)
+( 3.184885e+004, 7.325132e-004, 1.004275e+001)
+( 3.261392e+004, 1.871006e-003, 6.990554e+001)
+( 3.339737e+004, 3.760405e-003, 7.576419e+001)
+( 3.419964e+004, 5.365627e-003, 7.834123e+001)
+( 3.502118e+004, 7.107546e-003, 7.790638e+001)
+( 3.586246e+004, 9.063223e-003, 7.949746e+001)
+( 3.672395e+004, 1.112459e-002, 7.853911e+001)
+( 3.760613e+004, 1.318057e-002, 7.837926e+001)
+( 3.850951e+004, 1.540478e-002, 7.806818e+001)
+( 3.943458e+004, 1.801179e-002, 7.820905e+001)
+( 4.038188e+004, 2.059365e-002, 7.777149e+001)
+( 4.135193e+004, 2.337928e-002, 7.702330e+001)
+( 4.234528e+004, 2.663438e-002, 7.599395e+001)
+( 4.336250e+004, 3.012949e-002, 7.520250e+001)
+( 4.440416e+004, 3.401688e-002, 7.408942e+001)
+( 4.547083e+004, 3.848223e-002, 7.281245e+001)
+( 4.656313e+004, 4.348070e-002, 7.143647e+001)
+( 4.768167e+004, 4.944198e-002, 6.973157e+001)
+( 4.882708e+004, 5.628282e-002, 6.770900e+001)
+( 5.000000e+004, 6.446470e-002, 6.542028e+001)
+( 5.120110e+004, 7.432026e-002, 6.228586e+001)
+( 5.243105e+004, 8.656285e-002, 5.850931e+001)
+( 5.369055e+004, 1.016986e-001, 5.339720e+001)
+( 5.498030e+004, 1.208423e-001, 4.665075e+001)
+( 5.630104e+004, 1.437427e-001, 3.760435e+001)
+( 5.765350e+004, 1.687685e-001, 2.511743e+001)
+( 5.903845e+004, 1.885778e-001, 9.150851e+000)
+( 6.045667e+004, 1.947160e-001,-8.845344e+000)
+( 6.190896e+004, 1.818478e-001,-2.587971e+001)
+( 6.339614e+004, 1.596700e-001,-3.972241e+001)
+( 6.491904e+004, 1.365378e-001,-5.007923e+001)
+( 6.647852e+004, 1.164563e-001,-5.759299e+001)
+( 6.807547e+004, 9.988498e-002,-6.311832e+001)
+( 6.971077e+004, 8.630646e-002,-6.715820e+001)
+( 7.138536e+004, 7.536512e-002,-7.024698e+001)
+( 7.310018e+004, 6.599976e-002,-7.223657e+001)
+( 7.485619e+004, 5.791816e-002,-7.393057e+001)
+( 7.665439e+004, 5.095740e-002,-7.472027e+001)
+( 7.849578e+004, 4.440962e-002,-7.472752e+001)
+( 8.038140e+004, 3.837628e-002,-7.362267e+001)
+( 8.231232e+004, 3.279728e-002,-7.029798e+001)
+( 8.428963e+004, 2.762670e-002,-6.393416e+001)
+( 8.631443e+004, 2.383881e-002,-5.027273e+001)
+( 8.838787e+004, 2.428334e-002,-2.996255e+001)
+( 9.051113e+004, 3.241333e-002,-1.234989e+001)
+( 9.268538e+004, 4.972813e-002,-1.050434e+001)
+( 9.491187e+004, 6.970441e-002,-2.315914e+001)
+( 9.719184e+004, 7.966598e-002,-4.245863e+001)
+( 9.952658e+004, 7.568966e-002,-5.822865e+001)
+( 1.019174e+005, 6.798584e-002,-6.870705e+001)
+( 1.043657e+005, 6.043599e-002,-7.526664e+001)
+( 1.068727e+005, 5.437253e-002,-7.953751e+001)
+( 1.094400e+005, 4.954439e-002,-8.260645e+001)
+( 1.120690e+005, 4.557824e-002,-8.488491e+001)
+( 1.147611e+005, 4.226443e-002,-8.661063e+001)
+( 1.175179e+005, 3.945751e-002,-8.779177e+001)
+( 1.203409e+005, 3.693447e-002,-8.909465e+001)
+( 1.232317e+005, 3.498282e-002,-9.008073e+001)
+( 1.261920e+005, 3.296671e-002,-9.082209e+001)
+( 1.292234e+005, 3.139363e-002,-9.176936e+001)
+( 1.323276e+005, 2.986201e-002,-9.232965e+001)
+( 1.355064e+005, 2.828766e-002,-9.323024e+001)
+( 1.387615e+005, 2.708874e-002,-9.375218e+001)
+( 1.420948e+005, 2.593425e-002,-9.427826e+001)
+( 1.455082e+005, 2.462825e-002,-9.488421e+001)
+( 1.490036e+005, 2.372504e-002,-9.574752e+001)
+( 1.525830e+005, 2.270953e-002,-9.603850e+001)
+( 1.562483e+005, 2.181280e-002,-9.605763e+001)
+( 1.600017e+005, 2.099745e-002,-9.655016e+001)
+( 1.638453e+005, 2.016199e-002,-9.729320e+001)
+( 1.677812e+005, 1.943564e-002,-9.802970e+001)
+( 1.718116e+005, 1.854960e-002,-9.812608e+001)
+( 1.759389e+005, 1.790633e-002,-9.887376e+001)
+( 1.801653e+005, 1.729166e-002,-9.950274e+001)
+( 1.844932e+005, 1.658215e-002,-9.927303e+001)
+( 1.889251e+005, 1.603890e-002,-1.002266e+002)
+( 1.934634e+005, 1.543765e-002,-9.996267e+001)
+( 1.981108e+005, 1.473003e-002,-1.012111e+002)
+( 2.028698e+005, 1.426476e-002,-1.015948e+002)
+( 2.077431e+005, 1.375821e-002,-1.018379e+002)
+( 2.127335e+005, 1.315838e-002,-1.022439e+002)
+( 2.178438e+005, 1.269717e-002,-1.033012e+002)
+( 2.230769e+005, 1.232951e-002,-1.038103e+002)
+( 2.284356e+005, 1.186289e-002,-1.039257e+002)
+( 2.339231e+005, 1.133338e-002,-1.051083e+002)
+( 2.395424e+005, 1.094862e-002,-1.053891e+002)
+( 2.452967e+005, 1.054408e-002,-1.061920e+002)
+( 2.511892e+005, 1.016646e-002,-1.064930e+002)
+( 2.572232e+005, 9.806068e-003,-1.075824e+002)
+( 2.634023e+005, 9.303879e-003,-1.081850e+002)
+( 2.697297e+005, 8.982599e-003,-1.093498e+002)
+( 2.762091e+005, 8.636881e-003,-1.096230e+002)
+( 2.828442e+005, 8.267703e-003,-1.100872e+002)
+( 2.896387e+005, 7.935625e-003,-1.112095e+002)
+( 2.965964e+005, 7.510266e-003,-1.118046e+002)
+( 3.037212e+005, 7.355188e-003,-1.136679e+002)
+( 3.110172e+005, 6.772931e-003,-1.150777e+002)
+( 3.184885e+005, 6.652417e-003,-1.163860e+002)
+( 3.261392e+005, 6.416292e-003,-1.175253e+002)
+( 3.339737e+005, 5.992786e-003,-1.183831e+002)
+( 3.419964e+005, 5.629971e-003,-1.196251e+002)
+( 3.502118e+005, 5.591306e-003,-1.204753e+002)
+( 3.586246e+005, 5.045925e-003,-1.218806e+002)
+( 3.672395e+005, 4.878317e-003,-1.231197e+002)
+( 3.760613e+005, 4.635717e-003,-1.260884e+002)
+( 3.850951e+005, 4.461946e-003,-1.266111e+002)
+( 3.943458e+005, 4.269534e-003,-1.294858e+002)
+( 4.038188e+005, 3.930611e-003,-1.319426e+002)
+( 4.135193e+005, 3.697712e-003,-1.341744e+002)
+( 4.234528e+005, 3.488678e-003,-1.362413e+002)
+( 4.336250e+005, 3.159021e-003,-1.387668e+002)
+( 4.440416e+005, 3.179020e-003,-1.435841e+002)
+( 4.547083e+005, 2.978205e-003,-1.465388e+002)
+( 4.656313e+005, 2.803237e-003,-1.515778e+002)
+( 4.768167e+005, 2.712165e-003,-1.563712e+002)
+( 4.882708e+005, 2.564147e-003,-1.611057e+002)
+( 5.000000e+005, 2.565257e-003,-1.685008e+002)
+( 5.120110e+005, 2.381074e-003,-1.709814e+002)
+( 5.243105e+005, 2.368686e-003,-1.796932e+002)
+( 5.369055e+005, 2.225727e-003,-1.848766e+002)
+( 5.498030e+005, 2.233048e-003,-1.898425e+002)
+( 5.630104e+005, 2.398296e-003,-1.964518e+002)
+( 5.765350e+005, 2.460326e-003,-2.017215e+002)
+( 5.903845e+005, 2.371595e-003,-2.093898e+002)
+( 6.045667e+005, 2.516937e-003,-2.150462e+002)
+( 6.190896e+005, 2.763176e-003,-2.155411e+002)
+( 6.339614e+005, 2.790981e-003,-2.192179e+002)
+( 6.491904e+005, 2.832691e-003,-2.243145e+002)
+( 6.647852e+005, 3.137412e-003,-2.287620e+002)
+( 6.807547e+005, 3.226985e-003,-2.319296e+002)
+( 6.971077e+005, 3.508784e-003,-2.348182e+002)
+( 7.138536e+005, 3.635089e-003,-2.386794e+002)
+( 7.310018e+005, 3.798554e-003,-2.409106e+002)
+( 7.485619e+005, 3.977910e-003,-2.412582e+002)
+( 7.665439e+005, 4.181220e-003,-2.432138e+002)
+( 7.849578e+005, 4.351946e-003,-2.459787e+002)
+( 8.038140e+005, 4.618486e-003,-2.467171e+002)
+( 8.231232e+005, 4.860540e-003,-2.483935e+002)
+( 8.428963e+005, 5.054229e-003,-2.496818e+002)
+( 8.631443e+005, 5.230658e-003,-2.529536e+002)
+( 8.838787e+005, 5.410412e-003,-2.529222e+002)
+( 9.051113e+005, 5.823317e-003,-2.536198e+002)
+( 9.268538e+005, 5.867142e-003,-2.550807e+002)
+( 9.491187e+005, 6.231403e-003,-2.548241e+002)
+( 9.719184e+005, 6.469777e-003,-2.559601e+002)
+( 9.952658e+005, 6.724168e-003,-2.573910e+002)
+( 1.019174e+006, 6.854272e-003,-2.584976e+002)
+( 1.043657e+006, 6.937171e-003,-2.590569e+002)
+( 1.068727e+006, 7.346867e-003,-2.590181e+002)
+( 1.094400e+006, 7.597149e-003,-2.605629e+002)
+( 1.120690e+006, 7.829892e-003,-2.609168e+002)
+( 1.147611e+006, 7.995531e-003,-2.615536e+002)
+( 1.175179e+006, 8.357509e-003,-2.620441e+002)
+( 1.203409e+006, 8.603585e-003,-2.627726e+002)
+( 1.232317e+006, 8.733803e-003,-2.632508e+002)
+( 1.261920e+006, 8.987800e-003,-2.638583e+002)
+( 1.292234e+006, 9.234030e-003,-2.643145e+002)
+( 1.323276e+006, 9.486217e-003,-2.642984e+002)
+( 1.355064e+006, 9.616565e-003,-2.651118e+002)
+( 1.387615e+006, 9.888075e-003,-2.641991e+002)
+( 1.420948e+006, 1.025246e-002,-2.644694e+002)
+( 1.455082e+006, 1.052140e-002,-2.645286e+002)
+( 1.490036e+006, 1.087149e-002,-2.640147e+002)
+( 1.525830e+006, 1.108681e-002,-2.632959e+002)
+( 1.562483e+006, 1.155277e-002,-2.640457e+002)
+( 1.600017e+006, 1.194323e-002,-2.633980e+002)
+( 1.638453e+006, 1.245723e-002,-2.637240e+002)
+( 1.677812e+006, 1.282835e-002,-2.639497e+002)
+( 1.718116e+006, 1.327177e-002,-2.639958e+002)
+( 1.759389e+006, 1.366359e-002,-2.637505e+002)
+( 1.801653e+006, 1.411355e-002,-2.644465e+002)
+( 1.844932e+006, 1.459317e-002,-2.644072e+002)
+( 1.889251e+006, 1.494897e-002,-2.651839e+002)
+( 1.934634e+006, 1.535348e-002,-2.655340e+002)
+( 1.981108e+006, 1.584031e-002,-2.658646e+002)
+( 2.028698e+006, 1.622018e-002,-2.666430e+002)
+( 2.077431e+006, 1.678718e-002,-2.668530e+002)
+( 2.127335e+006, 1.716783e-002,-2.673509e+002)
+( 2.178438e+006, 1.745448e-002,-2.669433e+002)
+( 2.230769e+006, 1.802624e-002,-2.675454e+002)
+( 2.284356e+006, 1.845745e-002,-2.679511e+002)
+( 2.339231e+006, 1.893556e-002,-2.682415e+002)
+( 2.395424e+006, 1.939849e-002,-2.687315e+002)
+( 2.452967e+006, 1.992952e-002,-2.686504e+002)
+( 2.511892e+006, 2.023988e-002,-2.684428e+002)
+( 2.572232e+006, 2.076164e-002,-2.689875e+002)
+( 2.634023e+006, 2.133582e-002,-2.691693e+002)
+( 2.697297e+006, 2.199504e-002,-2.693210e+002)
+( 2.762091e+006, 2.235921e-002,-2.694849e+002)
+( 2.828442e+006, 2.295902e-002,-2.694407e+002)
+( 2.896387e+006, 2.364450e-002,-2.693600e+002)
+( 2.965964e+006, 2.400128e-002,-2.696748e+002)
+( 3.037212e+006, 2.454035e-002,-2.698275e+002)
+( 3.110172e+006, 2.536123e-002,-2.699213e+002)
+( 3.184885e+006, 2.572501e-002,-2.697801e+002)
+( 3.261392e+006, 2.619456e-002,-2.713956e+002)
+( 3.339737e+006, 2.687309e-002,-2.702900e+002)
+( 3.419964e+006, 2.745478e-002,-2.700164e+002)
+( 3.502118e+006, 2.841857e-002,-2.707405e+002)
+( 3.586246e+006, 2.906163e-002,-2.710639e+002)
+( 3.672395e+006, 2.930324e-002,-2.713042e+002)
+( 3.760613e+006, 3.012639e-002,-2.711062e+002)
+( 3.850951e+006, 3.046655e-002,-2.714043e+002)
+( 3.943458e+006, 3.143316e-002,-2.711835e+002)
+( 4.038188e+006, 3.243464e-002,-2.712667e+002)
+( 4.135193e+006, 3.292080e-002,-2.715804e+002)
+( 4.234528e+006, 3.398860e-002,-2.713289e+002)
+( 4.336250e+006, 3.431581e-002,-2.714500e+002)
+( 4.440416e+006, 3.517096e-002,-2.718695e+002)