* LTspice File
* 
**************************************************
* Manufacturer:           Würth Elektronik
* Kinds:                  Line Filter
* Matchcode:              WE-CLFS
* Library Type:           LTspice
* Version:                rev25a
* Created/modified by:    Alexander E.      
* Date and Time:          2025-05-23
* Team:                   PM eiSos EMC & SIPI  
* Contact:                libraries@we-online.com
**************************************************
* Copyright(C) 2025 Würth Elektronik eiSos GmbH & Co. KG
* All Rights Reserved.
**************************************************
* Disclaimer: While Würth Elektronik eiSos has made every reasonable effort to ensure the accuracy
* of the simulation models provided, Würth Elektronik eiSos does not guarantee the exemption of error on
* the simulation models, nor does Würth Elektronik eiSos guarantee that the simulation model is current.
* Würth Elektronik eiSos reserves the right to make any adjustments at any time without notice.
* Würth Elektronik eiSos expressly disclaims all implied warranties regarding this simulation model.
**************************************************
*
*Important Notice for Use:
*
*This model is based on directly measured S-parameters (amplitude and phase) and is intended exclusively
*for AC analysis within the measured frequency range.
*Transient simulations or usage beyond the measured frequency range are not supported by this model,
*although they may technically be performed. However, such use may result in *inaccurate behavior or
*convergence issues during simulation.
*Therefore, operation outside the specified frequency range is not recommended and should only be
*considered after careful evaluation.
*
**************************************************
*
*
.SUBCKT 810913006 1 2 3 4 5 
*
* GHz S MA R 50.000000
* Terminal data exported
* Port[1] = Port1
* Port[2] = Port2
* Port[3] = Port3
* Port[4] = Port4
* Z1=50.000000 Z2=50.000000 Z3=50.000000 Z4=50.000000

R1N 1 10 -5.000000e+001
R1P 10 11 1.000000e+002
R2N 2 20 -5.000000e+001
R2P 20 21 1.000000e+002
R3N 3 30 -5.000000e+001
R3P 30 31 1.000000e+002
R4N 4 40 -5.000000e+001
R4P 40 41 1.000000e+002

*S11 FREQ MAG PHASE
E11 11 12 FREQ {V(10,5)}= MAG
+( 5.000000e+000, 4.089992e-003, 7.549326e+001)
+( 5.120110e+000, 4.186817e-003, 7.575624e+001)
+( 5.243105e+000, 4.283899e-003, 7.599450e+001)
+( 5.369055e+000, 4.382826e-003, 7.619054e+001)
+( 5.498030e+000, 4.484459e-003, 7.639764e+001)
+( 5.630104e+000, 4.588521e-003, 7.659480e+001)
+( 5.765350e+000, 4.694876e-003, 7.677605e+001)
+( 5.903845e+000, 4.803534e-003, 7.696261e+001)
+( 6.045667e+000, 4.914739e-003, 7.713308e+001)
+( 6.190896e+000, 5.029897e-003, 7.731105e+001)
+( 6.339614e+000, 5.147045e-003, 7.749662e+001)
+( 6.491904e+000, 5.266763e-003, 7.765386e+001)
+( 6.647852e+000, 5.390505e-003, 7.780580e+001)
+( 6.807547e+000, 5.515393e-003, 7.797572e+001)
+( 6.971077e+000, 5.673105e-003, 7.805095e+001)
+( 7.138536e+000, 5.785232e-003, 7.824627e+001)
+( 7.310018e+000, 5.916444e-003, 7.841871e+001)
+( 7.485619e+000, 6.052754e-003, 7.856167e+001)
+( 7.665439e+000, 6.192532e-003, 7.870521e+001)
+( 7.849578e+000, 6.339637e-003, 7.883746e+001)
+( 8.038140e+000, 6.488359e-003, 7.895451e+001)
+( 8.231232e+000, 6.639059e-003, 7.908212e+001)
+( 8.428963e+000, 6.797900e-003, 7.920735e+001)
+( 8.631443e+000, 6.957292e-003, 7.932464e+001)
+( 8.838787e+000, 7.119175e-003, 7.943372e+001)
+( 9.051113e+000, 7.291293e-003, 7.954527e+001)
+( 9.268538e+000, 7.459525e-003, 7.964749e+001)
+( 9.491187e+000, 7.674964e-003, 7.964956e+001)
+( 9.719184e+000, 7.831495e-003, 7.979695e+001)
+( 9.952658e+000, 7.989949e-003, 7.991776e+001)
+( 1.019174e+001, 8.191514e-003, 8.001530e+001)
+( 1.043657e+001, 8.401631e-003, 8.010837e+001)
+( 1.068727e+001, 8.577502e-003, 8.017970e+001)
+( 1.094400e+001, 8.773467e-003, 8.024793e+001)
+( 1.120690e+001, 9.014414e-003, 8.033753e+001)
+( 1.147611e+001, 9.204757e-003, 8.040505e+001)
+( 1.175179e+001, 9.416662e-003, 8.047164e+001)
+( 1.203409e+001, 9.667470e-003, 8.054820e+001)
+( 1.232317e+001, 9.871715e-003, 8.060445e+001)
+( 1.261920e+001, 1.012250e-002, 8.066705e+001)
+( 1.292234e+001, 1.036447e-002, 8.071651e+001)
+( 1.323276e+001, 1.063236e-002, 8.078131e+001)
+( 1.355064e+001, 1.086112e-002, 8.082715e+001)
+( 1.387615e+001, 1.108799e-002, 8.086494e+001)
+( 1.420948e+001, 1.135658e-002, 8.090577e+001)
+( 1.455082e+001, 1.165255e-002, 8.094540e+001)
+( 1.490036e+001, 1.190717e-002, 8.097705e+001)
+( 1.525830e+001, 1.218156e-002, 8.101345e+001)
+( 1.562483e+001, 1.250718e-002, 8.104694e+001)
+( 1.600017e+001, 1.278059e-002, 8.106969e+001)
+( 1.638453e+001, 1.308237e-002, 8.109448e+001)
+( 1.677812e+001, 1.342507e-002, 8.111159e+001)
+( 1.718116e+001, 1.371869e-002, 8.112100e+001)
+( 1.759389e+001, 1.406114e-002, 8.114058e+001)
+( 1.801653e+001, 1.439557e-002, 8.117209e+001)
+( 1.844932e+001, 1.471649e-002, 8.117469e+001)
+( 1.889251e+001, 1.505970e-002, 8.116782e+001)
+( 1.934634e+001, 1.542548e-002, 8.117316e+001)
+( 1.981108e+001, 1.579944e-002, 8.116691e+001)
+( 2.028698e+001, 1.618215e-002, 8.116418e+001)
+( 2.077431e+001, 1.657423e-002, 8.115497e+001)
+( 2.127335e+001, 1.697445e-002, 8.114304e+001)
+( 2.178438e+001, 1.738640e-002, 8.112820e+001)
+( 2.230769e+001, 1.780672e-002, 8.111006e+001)
+( 2.284356e+001, 1.821848e-002, 8.109271e+001)
+( 2.339231e+001, 1.859819e-002, 8.106893e+001)
+( 2.395424e+001, 1.904786e-002, 8.103927e+001)
+( 2.452967e+001, 1.950962e-002, 8.101234e+001)
+( 2.511892e+001, 1.998842e-002, 8.100032e+001)
+( 2.572232e+001, 2.046493e-002, 8.096216e+001)
+( 2.634023e+001, 2.094166e-002, 8.090023e+001)
+( 2.697297e+001, 2.144115e-002, 8.086008e+001)
+( 2.762091e+001, 2.195304e-002, 8.081271e+001)
+( 2.828442e+001, 2.247532e-002, 8.076250e+001)
+( 2.896387e+001, 2.301086e-002, 8.071125e+001)
+( 2.965964e+001, 2.356034e-002, 8.065945e+001)
+( 3.037212e+001, 2.412124e-002, 8.059861e+001)
+( 3.110172e+001, 2.469681e-002, 8.053464e+001)
+( 3.184885e+001, 2.528559e-002, 8.047247e+001)
+( 3.261392e+001, 2.588630e-002, 8.040406e+001)
+( 3.339737e+001, 2.650255e-002, 8.032946e+001)
+( 3.419964e+001, 2.714819e-002, 8.026377e+001)
+( 3.502118e+001, 2.778891e-002, 8.018526e+001)
+( 3.586246e+001, 2.841591e-002, 8.009036e+001)
+( 3.672395e+001, 2.907787e-002, 8.000533e+001)
+( 3.760613e+001, 2.980271e-002, 7.991034e+001)
+( 3.850951e+001, 3.048703e-002, 7.981918e+001)
+( 3.943458e+001, 3.118422e-002, 7.972274e+001)
+( 4.038188e+001, 3.189972e-002, 7.962357e+001)
+( 4.135193e+001, 3.270404e-002, 7.951402e+001)
+( 4.234528e+001, 3.345806e-002, 7.940629e+001)
+( 4.336250e+001, 3.422598e-002, 7.929578e+001)
+( 4.440416e+001, 3.508593e-002, 7.916936e+001)
+( 4.547083e+001, 3.588527e-002, 7.905093e+001)
+( 4.656313e+001, 3.672993e-002, 7.893051e+001)
+( 4.768167e+001, 3.762282e-002, 7.880332e+001)
+( 4.882708e+001, 3.849710e-002, 7.867430e+001)
+( 5.000000e+001, 3.941529e-002, 7.851627e+001)
+( 5.120110e+001, 4.031089e-002, 7.837858e+001)
+( 5.243105e+001, 4.123021e-002, 7.824267e+001)
+( 5.369055e+001, 4.224020e-002, 7.807780e+001)
+( 5.498030e+001, 4.320275e-002, 7.792930e+001)
+( 5.630104e+001, 4.424540e-002, 7.776145e+001)
+( 5.765350e+001, 4.526151e-002, 7.759889e+001)
+( 5.903845e+001, 4.635588e-002, 7.742277e+001)
+( 6.045667e+001, 4.741018e-002, 7.725113e+001)
+( 6.190896e+001, 4.855786e-002, 7.706071e+001)
+( 6.339614e+001, 4.965603e-002, 7.688069e+001)
+( 6.491904e+001, 5.078954e-002, 7.669302e+001)
+( 6.647852e+001, 5.200654e-002, 7.649352e+001)
+( 6.807547e+001, 5.321287e-002, 7.629844e+001)
+( 6.971077e+001, 5.443105e-002, 7.608505e+001)
+( 7.138536e+001, 5.573739e-002, 7.586185e+001)
+( 7.310018e+001, 5.701076e-002, 7.564634e+001)
+( 7.485619e+001, 5.831132e-002, 7.542687e+001)
+( 7.665439e+001, 5.963384e-002, 7.519966e+001)
+( 7.849578e+001, 6.104982e-002, 7.495850e+001)
+( 8.038140e+001, 6.244910e-002, 7.471791e+001)
+( 8.231232e+001, 6.385946e-002, 7.447355e+001)
+( 8.428963e+001, 6.537370e-002, 7.420948e+001)
+( 8.631443e+001, 6.685471e-002, 7.395196e+001)
+( 8.838787e+001, 6.835251e-002, 7.368931e+001)
+( 9.051113e+001, 6.990468e-002, 7.341990e+001)
+( 9.268538e+001, 7.153359e-002, 7.314064e+001)
+( 9.491187e+001, 7.315118e-002, 7.284595e+001)
+( 9.719184e+001, 7.479688e-002, 7.255287e+001)
+( 9.952658e+001, 7.648284e-002, 7.225384e+001)
+( 1.019174e+002, 7.795051e-002, 7.199492e+001)
+( 1.043657e+002, 7.987263e-002, 7.164653e+001)
+( 1.068727e+002, 8.163843e-002, 7.132912e+001)
+( 1.094400e+002, 8.367632e-002, 7.096169e+001)
+( 1.120690e+002, 8.546673e-002, 7.063785e+001)
+( 1.147611e+002, 8.765571e-002, 7.024011e+001)
+( 1.175179e+002, 8.940587e-002, 6.992154e+001)
+( 1.203409e+002, 9.111401e-002, 6.960955e+001)
+( 1.232317e+002, 9.345810e-002, 6.917999e+001)
+( 1.261920e+002, 9.525189e-002, 6.885030e+001)
+( 1.292234e+002, 9.741977e-002, 6.846070e+001)
+( 1.323276e+002, 9.987734e-002, 6.800346e+001)
+( 1.355064e+002, 1.018156e-001, 6.764406e+001)
+( 1.387615e+002, 1.037853e-001, 6.727930e+001)
+( 1.420948e+002, 1.062067e-001, 6.682497e+001)
+( 1.455082e+002, 1.084214e-001, 6.640591e+001)
+( 1.490036e+002, 1.108909e-001, 6.593987e+001)
+( 1.525830e+002, 1.131894e-001, 6.550616e+001)
+( 1.562483e+002, 1.157620e-001, 6.501507e+001)
+( 1.600017e+002, 1.180793e-001, 6.457336e+001)
+( 1.638453e+002, 1.202844e-001, 6.415026e+001)
+( 1.677812e+002, 1.230450e-001, 6.361770e+001)
+( 1.718116e+002, 1.253676e-001, 6.316738e+001)
+( 1.759389e+002, 1.276591e-001, 6.252974e+001)
+( 1.801653e+002, 1.305457e-001, 6.212450e+001)
+( 1.844932e+002, 1.332317e-001, 6.162852e+001)
+( 1.889251e+002, 1.358901e-001, 6.110528e+001)
+( 1.934634e+002, 1.385813e-001, 6.057275e+001)
+( 1.981108e+002, 1.415967e-001, 5.996672e+001)
+( 2.028698e+002, 1.446052e-001, 5.935905e+001)
+( 2.077431e+002, 1.473846e-001, 5.879628e+001)
+( 2.127335e+002, 1.501939e-001, 5.822334e+001)
+( 2.178438e+002, 1.530330e-001, 5.764387e+001)
+( 2.230769e+002, 1.559011e-001, 5.705324e+001)
+( 2.284356e+002, 1.588023e-001, 5.645066e+001)
+( 2.339231e+002, 1.617214e-001, 5.583878e+001)
+( 2.395424e+002, 1.646727e-001, 5.521630e+001)
+( 2.452967e+002, 1.672171e-001, 5.449460e+001)
+( 2.511892e+002, 1.709069e-001, 5.385645e+001)
+( 2.572232e+002, 1.739925e-001, 5.321406e+001)
+( 2.634023e+002, 1.769639e-001, 5.256361e+001)
+( 2.697297e+002, 1.799504e-001, 5.190418e+001)
+( 2.762091e+002, 1.829641e-001, 5.123373e+001)
+( 2.828442e+002, 1.862110e-001, 5.050647e+001)
+( 2.896387e+002, 1.894759e-001, 4.976447e+001)
+( 2.965964e+002, 1.925160e-001, 4.906588e+001)
+( 3.037212e+002, 1.955676e-001, 4.835934e+001)
+( 3.110172e+002, 1.986150e-001, 4.764436e+001)
+( 3.184885e+002, 2.019745e-001, 4.684801e+001)
+( 3.261392e+002, 2.051107e-001, 4.609204e+001)
+( 3.339737e+002, 2.071485e-001, 4.526451e+001)
+( 3.419964e+002, 2.107977e-001, 4.458150e+001)
+( 3.502118e+002, 2.142916e-001, 4.381836e+001)
+( 3.586246e+002, 2.175327e-001, 4.299282e+001)
+( 3.672395e+002, 2.206022e-001, 4.220175e+001)
+( 3.760613e+002, 2.236041e-001, 4.141309e+001)
+( 3.850951e+002, 2.267904e-001, 4.056047e+001)
+( 3.943458e+002, 2.298161e-001, 3.973711e+001)
+( 4.038188e+002, 2.327310e-001, 3.892959e+001)
+( 4.135193e+002, 2.357263e-001, 3.808426e+001)
+( 4.234528e+002, 2.385964e-001, 3.725769e+001)
+( 4.336250e+002, 2.416342e-001, 3.636644e+001)
+( 4.440416e+002, 2.444562e-001, 3.551940e+001)
+( 4.547083e+002, 2.472780e-001, 3.465138e+001)
+( 4.656313e+002, 2.488016e-001, 3.378946e+001)
+( 4.768167e+002, 2.523472e-001, 3.288630e+001)
+( 4.882708e+002, 2.556057e-001, 3.197892e+001)
+( 5.000000e+002, 2.581714e-001, 3.110726e+001)
+( 5.120110e+002, 2.606572e-001, 3.023980e+001)
+( 5.243105e+002, 2.632136e-001, 2.932515e+001)
+( 5.369055e+002, 2.657167e-001, 2.840602e+001)
+( 5.498030e+002, 2.681714e-001, 2.747881e+001)
+( 5.630104e+002, 2.705440e-001, 2.654699e+001)
+( 5.765350e+002, 2.728383e-001, 2.560985e+001)
+( 5.903845e+002, 2.750597e-001, 2.467197e+001)
+( 6.045667e+002, 2.771593e-001, 2.374986e+001)
+( 6.190896e+002, 2.791708e-001, 2.283720e+001)
+( 6.339614e+002, 2.811964e-001, 2.188215e+001)
+( 6.491904e+002, 2.820944e-001, 2.102921e+001)
+( 6.647852e+002, 2.844154e-001, 2.001112e+001)
+( 6.807547e+002, 2.868255e-001, 1.897348e+001)
+( 6.971077e+002, 2.884875e-001, 1.802371e+001)
+( 7.138536e+002, 2.900550e-001, 1.708441e+001)
+( 7.310018e+002, 2.915490e-001, 1.610874e+001)
+( 7.485619e+002, 2.929990e-001, 1.512536e+001)
+( 7.665439e+002, 2.943705e-001, 1.414032e+001)
+( 7.849578e+002, 2.955928e-001, 1.315308e+001)
+( 8.038140e+002, 2.967875e-001, 1.216222e+001)
+( 8.231232e+002, 2.978782e-001, 1.116594e+001)
+( 8.428963e+002, 2.988522e-001, 1.016939e+001)
+( 8.631443e+002, 2.997370e-001, 9.169205e+000)
+( 8.838787e+002, 3.000521e-001, 8.337186e+000)
+( 9.051113e+002, 3.007890e-001, 7.340272e+000)
+( 9.268538e+002, 3.017906e-001, 6.209009e+000)
+( 9.491187e+002, 3.022938e-001, 5.195308e+000)
+( 9.719184e+002, 3.027302e-001, 4.185677e+000)
+( 9.952658e+002, 3.030567e-001, 3.179768e+000)
+( 1.019174e+003, 3.032653e-001, 2.242686e+000)
+( 1.043657e+003, 3.033734e-001, 1.048324e+000)
+( 1.068727e+003, 3.033799e-001, 1.962527e-001)
+( 1.094400e+003, 3.032913e-001,-9.803558e-001)
+( 1.120690e+003, 3.031260e-001,-1.841399e+000)
+( 1.147611e+003, 3.027870e-001,-3.000030e+000)
+( 1.175179e+003, 3.024528e-001,-3.932154e+000)
+( 1.203409e+003, 3.019222e-001,-5.010810e+000)
+( 1.232317e+003, 3.013750e-001,-5.901795e+000)
+( 1.261920e+003, 3.006464e-001,-6.966163e+000)
+( 1.292234e+003, 2.998719e-001,-8.074044e+000)
+( 1.323276e+003, 2.991195e-001,-8.994608e+000)
+( 1.355064e+003, 2.980068e-001,-1.013512e+001)
+( 1.387615e+003, 2.970764e-001,-1.102816e+001)
+( 1.420948e+003, 2.957985e-001,-1.219320e+001)
+( 1.455082e+003, 2.943566e-001,-1.333155e+001)
+( 1.490036e+003, 2.931866e-001,-1.422783e+001)
+( 1.525830e+003, 2.915627e-001,-1.535407e+001)
+( 1.562483e+003, 2.901723e-001,-1.626295e+001)
+( 1.600017e+003, 2.884300e-001,-1.736212e+001)
+( 1.638453e+003, 2.868333e-001,-1.831120e+001)
+( 1.677812e+003, 2.845992e-001,-1.938618e+001)
+( 1.718116e+003, 2.826236e-001,-2.037297e+001)
+( 1.759389e+003, 2.810846e-001,-2.140301e+001)
+( 1.801653e+003, 2.790780e-001,-2.239164e+001)
+( 1.844932e+003, 2.765526e-001,-2.356943e+001)
+( 1.889251e+003, 2.744211e-001,-2.453189e+001)
+( 1.934634e+003, 2.722336e-001,-2.549909e+001)
+( 1.981108e+003, 2.699415e-001,-2.645761e+001)
+( 2.028698e+003, 2.671068e-001,-2.761407e+001)
+( 2.077431e+003, 2.646843e-001,-2.856738e+001)
+( 2.127335e+003, 2.622227e-001,-2.951540e+001)
+( 2.178438e+003, 2.596551e-001,-3.046325e+001)
+( 2.230769e+003, 2.570699e-001,-3.140157e+001)
+( 2.284356e+003, 2.539056e-001,-3.250549e+001)
+( 2.339231e+003, 2.513499e-001,-3.337680e+001)
+( 2.395424e+003, 2.486766e-001,-3.426185e+001)
+( 2.452967e+003, 2.452338e-001,-3.541659e+001)
+( 2.511892e+003, 2.423958e-001,-3.632763e+001)
+( 2.572232e+003, 2.394992e-001,-3.722491e+001)
+( 2.634023e+003, 2.361838e-001,-3.825124e+001)
+( 2.697297e+003, 2.332087e-001,-3.915374e+001)
+( 2.762091e+003, 2.302275e-001,-4.003574e+001)
+( 2.828442e+003, 2.268193e-001,-4.101169e+001)
+( 2.896387e+003, 2.236833e-001,-4.190894e+001)
+( 2.965964e+003, 2.206301e-001,-4.276555e+001)
+( 3.037212e+003, 2.171734e-001,-4.373054e+001)
+( 3.110172e+003, 2.140408e-001,-4.457889e+001)
+( 3.184885e+003, 2.109148e-001,-4.542911e+001)
+( 3.261392e+003, 2.074128e-001,-4.632557e+001)
+( 3.339737e+003, 2.041450e-001,-4.712569e+001)
+( 3.419964e+003, 2.008438e-001,-4.805137e+001)
+( 3.502118e+003, 1.978381e-001,-4.882906e+001)
+( 3.586246e+003, 1.945252e-001,-4.965648e+001)
+( 3.672395e+003, 1.911720e-001,-5.048915e+001)
+( 3.760613e+003, 1.878276e-001,-5.131594e+001)
+( 3.850951e+003, 1.844953e-001,-5.212373e+001)
+( 3.943458e+003, 1.811710e-001,-5.292794e+001)
+( 4.038188e+003, 1.781633e-001,-5.365531e+001)
+( 4.135193e+003, 1.749309e-001,-5.441277e+001)
+( 4.234528e+003, 1.716621e-001,-5.517551e+001)
+( 4.336250e+003, 1.684441e-001,-5.594288e+001)
+( 4.440416e+003, 1.652726e-001,-5.670376e+001)
+( 4.547083e+003, 1.623680e-001,-5.749025e+001)
+( 4.656313e+003, 1.591523e-001,-5.807509e+001)
+( 4.768167e+003, 1.561383e-001,-5.875560e+001)
+( 4.882708e+003, 1.529703e-001,-5.946341e+001)
+( 5.000000e+003, 1.499903e-001,-6.014342e+001)
+( 5.120110e+003, 1.470685e-001,-6.078656e+001)
+( 5.243105e+003, 1.440212e-001,-6.145604e+001)
+( 5.369055e+003, 1.410690e-001,-6.209679e+001)
+( 5.498030e+003, 1.382338e-001,-6.272080e+001)
+( 5.630104e+003, 1.353308e-001,-6.336340e+001)
+( 5.765350e+003, 1.327966e-001,-6.403506e+001)
+( 5.903845e+003, 1.298591e-001,-6.456014e+001)
+( 6.045667e+003, 1.269460e-001,-6.515451e+001)
+( 6.190896e+003, 1.243263e-001,-6.574199e+001)
+( 6.339614e+003, 1.218027e-001,-6.651572e+001)
+( 6.491904e+003, 1.191332e-001,-6.685346e+001)
+( 6.647852e+003, 1.164431e-001,-6.739747e+001)
+( 6.807547e+003, 1.139692e-001,-6.792900e+001)
+( 6.971077e+003, 1.114518e-001,-6.846556e+001)
+( 7.138536e+003, 1.090107e-001,-6.897753e+001)
+( 7.310018e+003, 1.065705e-001,-6.948745e+001)
+( 7.485619e+003, 1.042239e-001,-6.998452e+001)
+( 7.665439e+003, 1.018728e-001,-7.047351e+001)
+( 7.849578e+003, 9.957413e-002,-7.094099e+001)
+( 8.038140e+003, 9.727408e-002,-7.144111e+001)
+( 8.231232e+003, 9.507643e-002,-7.189887e+001)
+( 8.428963e+003, 9.287263e-002,-7.236372e+001)
+( 8.631443e+003, 9.074461e-002,-7.282603e+001)
+( 8.838787e+003, 8.865512e-002,-7.325395e+001)
+( 9.051113e+003, 8.657733e-002,-7.368412e+001)
+( 9.268538e+003, 8.454569e-002,-7.410431e+001)
+( 9.491187e+003, 8.259017e-002,-7.451449e+001)
+( 9.719184e+003, 8.065986e-002,-7.492731e+001)
+( 9.952658e+003, 7.876749e-002,-7.533040e+001)
+( 1.019174e+004, 7.679529e-002,-7.574594e+001)
+( 1.043657e+004, 7.499559e-002,-7.613275e+001)
+( 1.068727e+004, 7.329068e-002,-7.649973e+001)
+( 1.094400e+004, 7.155732e-002,-7.686729e+001)
+( 1.120690e+004, 6.987267e-002,-7.723644e+001)
+( 1.147611e+004, 6.764827e-002,-7.768536e+001)
+( 1.175179e+004, 6.642261e-002,-7.799172e+001)
+( 1.203409e+004, 6.478420e-002,-7.825846e+001)
+( 1.232317e+004, 6.319715e-002,-7.869127e+001)
+( 1.261920e+004, 6.153980e-002,-7.911693e+001)
+( 1.292234e+004, 6.016874e-002,-7.944451e+001)
+( 1.323276e+004, 5.875287e-002,-7.978762e+001)
+( 1.355064e+004, 5.715284e-002,-8.018616e+001)
+( 1.387615e+004, 5.580737e-002,-8.053225e+001)
+( 1.420948e+004, 5.452877e-002,-8.087313e+001)
+( 1.455082e+004, 5.303306e-002,-8.128784e+001)
+( 1.490036e+004, 5.178694e-002,-8.164790e+001)
+( 1.525830e+004, 5.056434e-002,-8.201377e+001)
+( 1.562483e+004, 4.918136e-002,-8.245198e+001)
+( 1.600017e+004, 4.811692e-002,-8.283107e+001)
+( 1.638453e+004, 4.697509e-002,-8.323099e+001)
+( 1.677812e+004, 4.574489e-002,-8.375318e+001)
+( 1.718116e+004, 4.467003e-002,-8.425856e+001)
+( 1.759389e+004, 4.357518e-002,-8.482775e+001)
+( 1.801653e+004, 4.252039e-002,-8.544575e+001)
+( 1.844932e+004, 4.161009e-002,-8.604265e+001)
+( 1.889251e+004, 4.068203e-002,-8.674000e+001)
+( 1.934634e+004, 3.969936e-002,-8.757450e+001)
+( 1.981108e+004, 3.887196e-002,-8.839761e+001)
+( 2.028698e+004, 3.804336e-002,-8.941546e+001)
+( 2.077431e+004, 3.718057e-002,-9.067145e+001)
+( 2.127335e+004, 3.637816e-002,-9.202174e+001)
+( 2.178438e+004, 3.558894e-002,-9.365586e+001)
+( 2.230769e+004, 3.489157e-002,-9.534777e+001)
+( 2.284356e+004, 3.420887e-002,-9.754637e+001)
+( 2.339231e+004, 3.334182e-002,-1.002424e+002)
+( 2.395424e+004, 3.253785e-002,-1.030856e+002)
+( 2.452967e+004, 3.173548e-002,-1.064013e+002)
+( 2.511892e+004, 3.082029e-002,-1.103909e+002)
+( 2.572232e+004, 2.987738e-002,-1.146877e+002)
+( 2.634023e+004, 2.874721e-002,-1.201132e+002)
+( 2.697297e+004, 2.760503e-002,-1.256421e+002)
+( 2.762091e+004, 2.625982e-002,-1.326567e+002)
+( 2.828442e+004, 2.494064e-002,-1.396424e+002)
+( 2.896387e+004, 2.338013e-002,-1.486007e+002)
+( 2.965964e+004, 2.199099e-002,-1.578716e+002)
+( 3.037212e+004, 2.078571e-002,-1.675454e+002)
+( 3.110172e+004, 1.980251e-002,-1.779027e+002)
+( 3.184885e+004, 1.931167e-002,-1.887969e+002)
+( 3.261392e+004, 1.923186e-002,-1.998693e+002)
+( 3.339737e+004, 1.943522e-002,-2.102433e+002)
+( 3.419964e+004, 2.015633e-002,-2.195863e+002)
+( 3.502118e+004, 2.107912e-002,-2.284771e+002)
+( 3.586246e+004, 2.250686e-002,-2.358812e+002)
+( 3.672395e+004, 2.411536e-002,-2.430719e+002)
+( 3.760613e+004, 2.608559e-002,-2.492645e+002)
+( 3.850951e+004, 2.844111e-002,-2.546554e+002)
+( 3.943458e+004, 3.133802e-002,-2.593197e+002)
+( 4.038188e+004, 3.430982e-002,-2.635996e+002)
+( 4.135193e+004, 3.773526e-002,-2.675171e+002)
+( 4.234528e+004, 4.180759e-002,-2.714070e+002)
+( 4.336250e+004, 4.633916e-002,-2.748543e+002)
+( 4.440416e+004, 5.170203e-002,-2.783876e+002)
+( 4.547083e+004, 5.799167e-002,-2.819779e+002)
+( 4.656313e+004, 6.535749e-002,-2.856515e+002)
+( 4.768167e+004, 7.445292e-002,-2.896942e+002)
+( 4.882708e+004, 8.537808e-002,-2.943045e+002)
+( 5.000000e+004, 9.901315e-002,-2.996472e+002)
+( 5.120110e+004, 1.159545e-001,-3.064806e+002)
+( 5.243105e+004, 1.367717e-001,-3.150668e+002)
+( 5.369055e+004, 1.608485e-001,-3.265297e+002)
+( 5.498030e+004, 1.839830e-001,-3.413046e+002)
+( 5.630104e+004, 1.977753e-001,-3.588994e+002)
+( 5.765350e+004, 1.930763e-001,-3.770835e+002)
+( 5.903845e+004, 1.746645e-001,-3.930609e+002)
+( 6.045667e+004, 1.512203e-001,-4.057044e+002)
+( 6.190896e+004, 1.292569e-001,-4.149571e+002)
+( 6.339614e+004, 1.108414e-001,-4.219727e+002)
+( 6.491904e+004, 9.583411e-002,-4.272843e+002)
+( 6.647852e+004, 8.355836e-002,-4.315046e+002)
+( 6.807547e+004, 7.349093e-002,-4.348203e+002)
+( 6.971077e+004, 6.492817e-002,-4.374408e+002)
+( 7.138536e+004, 5.774557e-002,-4.396687e+002)
+( 7.310018e+004, 5.129018e-002,-4.410717e+002)
+( 7.485619e+004, 4.553938e-002,-4.425241e+002)
+( 7.665439e+004, 4.040577e-002,-4.431740e+002)
+( 7.849578e+004, 3.534631e-002,-4.432030e+002)
+( 8.038140e+004, 3.048315e-002,-4.422559e+002)
+( 8.231232e+004, 2.575199e-002,-4.389585e+002)
+( 8.428963e+004, 2.124975e-002,-4.322803e+002)
+( 8.631443e+004, 1.785245e-002,-4.166288e+002)
+( 8.838787e+004, 1.858047e-002,-3.925466e+002)
+( 9.051113e+004, 2.653333e-002,-3.741635e+002)
+( 9.268538e+004, 4.171267e-002,-3.742032e+002)
+( 9.491187e+004, 5.813325e-002,-3.877987e+002)
+( 9.719184e+004, 6.628388e-002,-4.066567e+002)
+( 9.952658e+004, 6.377730e-002,-4.220083e+002)
+( 1.019174e+005, 5.811976e-002,-4.325779e+002)
+( 1.043657e+005, 5.224963e-002,-4.394969e+002)
+( 1.068727e+005, 4.736519e-002,-4.442258e+002)
+( 1.094400e+005, 4.345816e-002,-4.476605e+002)
+( 1.120690e+005, 4.011070e-002,-4.502998e+002)
+( 1.147611e+005, 3.736799e-002,-4.524633e+002)
+( 1.175179e+005, 3.496605e-002,-4.539566e+002)
+( 1.203409e+005, 3.284285e-002,-4.556667e+002)
+( 1.232317e+005, 3.117743e-002,-4.569147e+002)
+( 1.261920e+005, 2.943648e-002,-4.580226e+002)
+( 1.292234e+005, 2.812926e-002,-4.591951e+002)
+( 1.323276e+005, 2.678100e-002,-4.600971e+002)
+( 1.355064e+005, 2.543227e-002,-4.613356e+002)
+( 1.387615e+005, 2.433242e-002,-4.621182e+002)
+( 1.420948e+005, 2.340161e-002,-4.628976e+002)
+( 1.455082e+005, 2.222806e-002,-4.638861e+002)
+( 1.490036e+005, 2.150501e-002,-4.650800e+002)
+( 1.525830e+005, 2.058525e-002,-4.656071e+002)
+( 1.562483e+005, 1.979033e-002,-4.659363e+002)
+( 1.600017e+005, 1.905625e-002,-4.666629e+002)
+( 1.638453e+005, 1.841116e-002,-4.678028e+002)
+( 1.677812e+005, 1.778217e-002,-4.688445e+002)
+( 1.718116e+005, 1.698508e-002,-4.693562e+002)
+( 1.759389e+005, 1.645341e-002,-4.703744e+002)
+( 1.801653e+005, 1.591117e-002,-4.713879e+002)
+( 1.844932e+005, 1.529137e-002,-4.714015e+002)
+( 1.889251e+005, 1.482195e-002,-4.727311e+002)
+( 1.934634e+005, 1.426873e-002,-4.727524e+002)
+( 1.981108e+005, 1.373872e-002,-4.746296e+002)
+( 2.028698e+005, 1.336240e-002,-4.751019e+002)
+( 2.077431e+005, 1.288064e-002,-4.759779e+002)
+( 2.127335e+005, 1.233791e-002,-4.767896e+002)
+( 2.178438e+005, 1.202395e-002,-4.784217e+002)
+( 2.230769e+005, 1.166733e-002,-4.790721e+002)
+( 2.284356e+005, 1.128004e-002,-4.795889e+002)
+( 2.339231e+005, 1.087231e-002,-4.810727e+002)
+( 2.395424e+005, 1.051593e-002,-4.821937e+002)
+( 2.452967e+005, 1.021599e-002,-4.833401e+002)
+( 2.511892e+005, 9.895853e-003,-4.840005e+002)
+( 2.572232e+005, 9.650631e-003,-4.855708e+002)
+( 2.634023e+005, 9.252173e-003,-4.866627e+002)
+( 2.697297e+005, 9.011014e-003,-4.882591e+002)
+( 2.762091e+005, 8.723212e-003,-4.891020e+002)
+( 2.828442e+005, 8.393725e-003,-4.902355e+002)
+( 2.896387e+005, 8.096968e-003,-4.918557e+002)
+( 2.965964e+005, 7.796284e-003,-4.931363e+002)
+( 3.037212e+005, 7.741483e-003,-4.947613e+002)
+( 3.110172e+005, 7.264721e-003,-4.976471e+002)
+( 3.184885e+005, 7.244122e-003,-4.989938e+002)
+( 3.261392e+005, 7.052898e-003,-5.006117e+002)
+( 3.339737e+005, 6.743478e-003,-5.021775e+002)
+( 3.419964e+005, 6.495619e-003,-5.043370e+002)
+( 3.502118e+005, 6.444000e-003,-5.050742e+002)
+( 3.586246e+005, 6.038727e-003,-5.076868e+002)
+( 3.672395e+005, 5.917479e-003,-5.094496e+002)
+( 3.760613e+005, 5.818299e-003,-5.118468e+002)
+( 3.850951e+005, 5.691626e-003,-5.130663e+002)
+( 3.943458e+005, 5.606153e-003,-5.154958e+002)
+( 4.038188e+005, 5.355429e-003,-5.187425e+002)
+( 4.135193e+005, 5.217878e-003,-5.206656e+002)
+( 4.234528e+005, 5.116880e-003,-5.226404e+002)
+( 4.336250e+005, 4.883268e-003,-5.254540e+002)
+( 4.440416e+005, 4.999033e-003,-5.282639e+002)
+( 4.547083e+005, 4.885246e-003,-5.305349e+002)
+( 4.656313e+005, 4.820849e-003,-5.332295e+002)
+( 4.768167e+005, 4.818954e-003,-5.367685e+002)
+( 4.882708e+005, 4.698732e-003,-5.393506e+002)
+( 5.000000e+005, 4.771079e-003,-5.426985e+002)
+( 5.120110e+005, 4.589034e-003,-5.442890e+002)
+( 5.243105e+005, 4.700755e-003,-5.487630e+002)
+( 5.369055e+005, 4.540427e-003,-5.510943e+002)
+( 5.498030e+005, 4.546360e-003,-5.534808e+002)
+( 5.630104e+005, 4.694687e-003,-5.565345e+002)
+( 5.765350e+005, 4.728054e-003,-5.592531e+002)
+( 5.903845e+005, 4.569789e-003,-5.625301e+002)
+( 6.045667e+005, 4.700312e-003,-5.654328e+002)
+( 6.190896e+005, 4.890189e-003,-5.664241e+002)
+( 6.339614e+005, 4.861089e-003,-5.679708e+002)
+( 6.491904e+005, 4.841937e-003,-5.707528e+002)
+( 6.647852e+005, 5.035620e-003,-5.745757e+002)
+( 6.807547e+005, 5.051580e-003,-5.767289e+002)
+( 6.971077e+005, 5.197999e-003,-5.789988e+002)
+( 7.138536e+005, 5.277748e-003,-5.815796e+002)
+( 7.310018e+005, 5.386437e-003,-5.833240e+002)
+( 7.485619e+005, 5.501668e-003,-5.842699e+002)
+( 7.665439e+005, 5.626108e-003,-5.863952e+002)
+( 7.849578e+005, 5.716306e-003,-5.884364e+002)
+( 8.038140e+005, 5.973010e-003,-5.899767e+002)
+( 8.231232e+005, 6.094145e-003,-5.918782e+002)
+( 8.428963e+005, 6.203844e-003,-5.928128e+002)
+( 8.631443e+005, 6.257519e-003,-5.958138e+002)
+( 8.838787e+005, 6.432500e-003,-5.964218e+002)
+( 9.051113e+005, 6.751586e-003,-5.981974e+002)
+( 9.268538e+005, 6.733753e-003,-5.992085e+002)
+( 9.491187e+005, 7.027703e-003,-5.998920e+002)
+( 9.719184e+005, 7.234580e-003,-6.011874e+002)
+( 9.952658e+005, 7.397822e-003,-6.025831e+002)
+( 1.019174e+006, 7.470636e-003,-6.040620e+002)
+( 1.043657e+006, 7.476578e-003,-6.051041e+002)
+( 1.068727e+006, 7.870871e-003,-6.055355e+002)
+( 1.094400e+006, 8.012886e-003,-6.073545e+002)
+( 1.120690e+006, 8.189830e-003,-6.080538e+002)
+( 1.147611e+006, 8.310671e-003,-6.088248e+002)
+( 1.175179e+006, 8.592953e-003,-6.098419e+002)
+( 1.203409e+006, 8.789811e-003,-6.109248e+002)
+( 1.232317e+006, 8.884592e-003,-6.115760e+002)
+( 1.261920e+006, 9.087814e-003,-6.122956e+002)
+( 1.292234e+006, 9.273086e-003,-6.131826e+002)
+( 1.323276e+006, 9.457555e-003,-6.133667e+002)
+( 1.355064e+006, 9.581813e-003,-6.143922e+002)
+( 1.387615e+006, 9.826107e-003,-6.138257e+002)
+( 1.420948e+006, 1.012833e-002,-6.142777e+002)
+( 1.455082e+006, 1.036669e-002,-6.146388e+002)
+( 1.490036e+006, 1.066243e-002,-6.143061e+002)
+( 1.525830e+006, 1.088620e-002,-6.137468e+002)
+( 1.562483e+006, 1.124142e-002,-6.149854e+002)
+( 1.600017e+006, 1.162861e-002,-6.146412e+002)
+( 1.638453e+006, 1.210268e-002,-6.154283e+002)
+( 1.677812e+006, 1.243582e-002,-6.156163e+002)
+( 1.718116e+006, 1.284031e-002,-6.160542e+002)
+( 1.759389e+006, 1.316845e-002,-6.159592e+002)
+( 1.801653e+006, 1.353588e-002,-6.171061e+002)
+( 1.844932e+006, 1.394099e-002,-6.172779e+002)
+( 1.889251e+006, 1.425072e-002,-6.180934e+002)
+( 1.934634e+006, 1.458655e-002,-6.186606e+002)
+( 1.981108e+006, 1.500649e-002,-6.192185e+002)
+( 2.028698e+006, 1.530083e-002,-6.202531e+002)
+( 2.077431e+006, 1.582945e-002,-6.208071e+002)
+( 2.127335e+006, 1.611689e-002,-6.213503e+002)
+( 2.178438e+006, 1.639339e-002,-6.209262e+002)
+( 2.230769e+006, 1.689578e-002,-6.217985e+002)
+( 2.284356e+006, 1.726220e-002,-6.223503e+002)
+( 2.339231e+006, 1.766409e-002,-6.227220e+002)
+( 2.395424e+006, 1.807612e-002,-6.235363e+002)
+( 2.452967e+006, 1.852069e-002,-6.235841e+002)
+( 2.511892e+006, 1.875962e-002,-6.233744e+002)
+( 2.572232e+006, 1.924609e-002,-6.242035e+002)
+( 2.634023e+006, 1.976214e-002,-6.245869e+002)
+( 2.697297e+006, 2.030101e-002,-6.248258e+002)
+( 2.762091e+006, 2.069286e-002,-6.250592e+002)
+( 2.828442e+006, 2.119186e-002,-6.251306e+002)
+( 2.896387e+006, 2.179607e-002,-6.251629e+002)
+( 2.965964e+006, 2.209013e-002,-6.255104e+002)
+( 3.037212e+006, 2.255045e-002,-6.257479e+002)
+( 3.110172e+006, 2.325531e-002,-6.260912e+002)
+( 3.184885e+006, 2.346458e-002,-6.256599e+002)
+( 3.261392e+006, 2.388513e-002,-6.273440e+002)
+( 3.339737e+006, 2.453759e-002,-6.263648e+002)
+( 3.419964e+006, 2.507294e-002,-6.260923e+002)
+( 3.502118e+006, 2.589541e-002,-6.270253e+002)
+( 3.586246e+006, 2.646562e-002,-6.274090e+002)
+( 3.672395e+006, 2.663109e-002,-6.276734e+002)
+( 3.760613e+006, 2.735078e-002,-6.275699e+002)
+( 3.850951e+006, 2.758944e-002,-6.279883e+002)
+( 3.943458e+006, 2.854049e-002,-6.277950e+002)
+( 4.038188e+006, 2.942460e-002,-6.281671e+002)
+( 4.135193e+006, 2.982024e-002,-6.284366e+002)
+( 4.234528e+006, 3.082922e-002,-6.282487e+002)
+( 4.336250e+006, 3.106717e-002,-6.283825e+002)
+( 4.440416e+006, 3.178220e-002,-6.290279e+002)