* LTspice File
* 
**************************************************
* Manufacturer:           Würth Elektronik
* Kinds:                  Line Filter
* Matchcode:              WE-CLFS
* Library Type:           LTspice
* Version:                rev25a
* Created/modified by:    Alexander E.     
* Date and Time:          2025-05-23
* Team:                   PM eiSos EMC & SIPI  
* Contact:                libraries@we-online.com
**************************************************
* Copyright(C) 2025 Würth Elektronik eiSos GmbH & Co. KG
* All Rights Reserved.
**************************************************
* Disclaimer: While Würth Elektronik eiSos has made every reasonable effort to ensure the accuracy
* of the simulation models provided, Würth Elektronik eiSos does not guarantee the exemption of error on
* the simulation models, nor does Würth Elektronik eiSos guarantee that the simulation model is current.
* Würth Elektronik eiSos reserves the right to make any adjustments at any time without notice.
* Würth Elektronik eiSos expressly disclaims all implied warranties regarding this simulation model.
**************************************************
*
*Important Notice for Use:
*
*This model is based on directly measured S-parameters (amplitude and phase) and is intended exclusively
*for AC analysis within the measured frequency range.
*Transient simulations or usage beyond the measured frequency range are not supported by this model,
*although they may technically be performed. However, such use may result in *inaccurate behavior or
*convergence issues during simulation.
*Therefore, operation outside the specified frequency range is not recommended and should only be
*considered after careful evaluation.
*
**************************************************
*
*
.SUBCKT 810911001112 1 2 3 4 5 
*
* GHz S MA R 50.000000
* Terminal data exported
* Port[1] = Port1
* Port[2] = Port2
* Port[3] = Port3
* Port[4] = Port4
* Z1=50.000000 Z2=50.000000 Z3=50.000000 Z4=50.000000

R1N 1 10 -5.000000e+001
R1P 10 11 1.000000e+002
R2N 2 20 -5.000000e+001
R2P 20 21 1.000000e+002
R3N 3 30 -5.000000e+001
R3P 30 31 1.000000e+002
R4N 4 40 -5.000000e+001
R4P 40 41 1.000000e+002

*S11 FREQ MAG PHASE
E11 11 12 FREQ {V(10,5)}= MAG
+( 5.000000e+000, 9.942761e-003, 6.956634e+001)
+( 5.120110e+000, 1.012508e-002, 6.981197e+001)
+( 5.243105e+000, 1.034515e-002, 7.008089e+001)
+( 5.369055e+000, 1.057697e-002, 7.034955e+001)
+( 5.498030e+000, 1.081344e-002, 7.061403e+001)
+( 5.630104e+000, 1.105596e-002, 7.086674e+001)
+( 5.765350e+000, 1.130534e-002, 7.111199e+001)
+( 5.903845e+000, 1.156029e-002, 7.135535e+001)
+( 6.045667e+000, 1.182167e-002, 7.159155e+001)
+( 6.190896e+000, 1.208942e-002, 7.181996e+001)
+( 6.339614e+000, 1.236416e-002, 7.204577e+001)
+( 6.491904e+000, 1.264468e-002, 7.226003e+001)
+( 6.647852e+000, 1.293282e-002, 7.246945e+001)
+( 6.807547e+000, 1.322797e-002, 7.267845e+001)
+( 6.971077e+000, 1.357363e-002, 7.287370e+001)
+( 7.138536e+000, 1.385523e-002, 7.304947e+001)
+( 7.310018e+000, 1.416752e-002, 7.324031e+001)
+( 7.485619e+000, 1.448718e-002, 7.342250e+001)
+( 7.665439e+000, 1.481639e-002, 7.359406e+001)
+( 7.849578e+000, 1.516283e-002, 7.376743e+001)
+( 8.038140e+000, 1.551099e-002, 7.393094e+001)
+( 8.231232e+000, 1.586479e-002, 7.408775e+001)
+( 8.428963e+000, 1.623758e-002, 7.425130e+001)
+( 8.631443e+000, 1.661003e-002, 7.439933e+001)
+( 8.838787e+000, 1.699191e-002, 7.454067e+001)
+( 9.051113e+000, 1.739234e-002, 7.468098e+001)
+( 9.268538e+000, 1.778842e-002, 7.480933e+001)
+( 9.491187e+000, 1.828841e-002, 7.486828e+001)
+( 9.719184e+000, 1.867777e-002, 7.500109e+001)
+( 9.952658e+000, 1.905605e-002, 7.512259e+001)
+( 1.019174e+001, 1.952633e-002, 7.524670e+001)
+( 1.043657e+001, 2.002115e-002, 7.536653e+001)
+( 1.068727e+001, 2.043524e-002, 7.545946e+001)
+( 1.094400e+001, 2.089544e-002, 7.555934e+001)
+( 1.120690e+001, 2.145905e-002, 7.566778e+001)
+( 1.147611e+001, 2.190432e-002, 7.574580e+001)
+( 1.175179e+001, 2.240182e-002, 7.582883e+001)
+( 1.203409e+001, 2.299254e-002, 7.591923e+001)
+( 1.232317e+001, 2.346974e-002, 7.598273e+001)
+( 1.261920e+001, 2.405778e-002, 7.605701e+001)
+( 1.292234e+001, 2.462581e-002, 7.612404e+001)
+( 1.323276e+001, 2.522122e-002, 7.620057e+001)
+( 1.355064e+001, 2.577293e-002, 7.624848e+001)
+( 1.387615e+001, 2.632211e-002, 7.629012e+001)
+( 1.420948e+001, 2.695404e-002, 7.633879e+001)
+( 1.455082e+001, 2.764610e-002, 7.638618e+001)
+( 1.490036e+001, 2.824267e-002, 7.641963e+001)
+( 1.525830e+001, 2.888573e-002, 7.645113e+001)
+( 1.562483e+001, 2.964909e-002, 7.648492e+001)
+( 1.600017e+001, 3.029031e-002, 7.650707e+001)
+( 1.638453e+001, 3.099410e-002, 7.652748e+001)
+( 1.677812e+001, 3.179078e-002, 7.654086e+001)
+( 1.718116e+001, 3.247950e-002, 7.655081e+001)
+( 1.759389e+001, 3.329035e-002, 7.655845e+001)
+( 1.801653e+001, 3.402825e-002, 7.654147e+001)
+( 1.844932e+001, 3.478736e-002, 7.654460e+001)
+( 1.889251e+001, 3.562196e-002, 7.655544e+001)
+( 1.934634e+001, 3.647284e-002, 7.654658e+001)
+( 1.981108e+001, 3.734596e-002, 7.653118e+001)
+( 2.028698e+001, 3.823985e-002, 7.651349e+001)
+( 2.077431e+001, 3.915197e-002, 7.649190e+001)
+( 2.127335e+001, 4.008692e-002, 7.646119e+001)
+( 2.178438e+001, 4.104501e-002, 7.642731e+001)
+( 2.230769e+001, 4.202121e-002, 7.639078e+001)
+( 2.284356e+001, 4.297793e-002, 7.635024e+001)
+( 2.339231e+001, 4.385965e-002, 7.630966e+001)
+( 2.395424e+001, 4.490489e-002, 7.625825e+001)
+( 2.452967e+001, 4.597696e-002, 7.620495e+001)
+( 2.511892e+001, 4.706083e-002, 7.611015e+001)
+( 2.572232e+001, 4.816940e-002, 7.603945e+001)
+( 2.634023e+001, 4.930938e-002, 7.600029e+001)
+( 2.697297e+001, 5.046467e-002, 7.592924e+001)
+( 2.762091e+001, 5.164633e-002, 7.585289e+001)
+( 2.828442e+001, 5.285682e-002, 7.577382e+001)
+( 2.896387e+001, 5.408980e-002, 7.568556e+001)
+( 2.965964e+001, 5.535706e-002, 7.559454e+001)
+( 3.037212e+001, 5.664995e-002, 7.549653e+001)
+( 3.110172e+001, 5.797251e-002, 7.539714e+001)
+( 3.184885e+001, 5.932549e-002, 7.529054e+001)
+( 3.261392e+001, 6.070889e-002, 7.517895e+001)
+( 3.339737e+001, 6.212326e-002, 7.506419e+001)
+( 3.419964e+001, 6.358447e-002, 7.494254e+001)
+( 3.502118e+001, 6.504853e-002, 7.481775e+001)
+( 3.586246e+001, 6.650298e-002, 7.469008e+001)
+( 3.672395e+001, 6.801921e-002, 7.455643e+001)
+( 3.760613e+001, 6.969416e-002, 7.440609e+001)
+( 3.850951e+001, 7.125248e-002, 7.426278e+001)
+( 3.943458e+001, 7.284105e-002, 7.411807e+001)
+( 4.038188e+001, 7.446630e-002, 7.396704e+001)
+( 4.135193e+001, 7.628967e-002, 7.379497e+001)
+( 4.234528e+001, 7.799600e-002, 7.363232e+001)
+( 4.336250e+001, 7.972827e-002, 7.346502e+001)
+( 4.440416e+001, 8.166765e-002, 7.327478e+001)
+( 4.547083e+001, 8.347108e-002, 7.309727e+001)
+( 4.656313e+001, 8.536504e-002, 7.290926e+001)
+( 4.768167e+001, 8.735687e-002, 7.271244e+001)
+( 4.882708e+001, 8.931917e-002, 7.251641e+001)
+( 5.000000e+001, 9.139285e-002, 7.230348e+001)
+( 5.120110e+001, 9.338774e-002, 7.209839e+001)
+( 5.243105e+001, 9.542601e-002, 7.188691e+001)
+( 5.369055e+001, 9.766001e-002, 7.165503e+001)
+( 5.498030e+001, 9.979334e-002, 7.143149e+001)
+( 5.630104e+001, 1.020943e-001, 7.118883e+001)
+( 5.765350e+001, 1.043231e-001, 7.095214e+001)
+( 5.903845e+001, 1.067169e-001, 7.069538e+001)
+( 6.045667e+001, 1.090235e-001, 7.045043e+001)
+( 6.190896e+001, 1.115198e-001, 7.017813e+001)
+( 6.339614e+001, 1.139027e-001, 6.992163e+001)
+( 6.491904e+001, 1.163523e-001, 6.965366e+001)
+( 6.647852e+001, 1.189643e-001, 6.935213e+001)
+( 6.807547e+001, 1.215326e-001, 6.904665e+001)
+( 6.971077e+001, 1.241804e-001, 6.878830e+001)
+( 7.138536e+001, 1.269613e-001, 6.847516e+001)
+( 7.310018e+001, 1.296636e-001, 6.817651e+001)
+( 7.485619e+001, 1.324056e-001, 6.786699e+001)
+( 7.665439e+001, 1.351916e-001, 6.755231e+001)
+( 7.849578e+001, 1.381559e-001, 6.721880e+001)
+( 8.038140e+001, 1.410704e-001, 6.688799e+001)
+( 8.231232e+001, 1.439902e-001, 6.655546e+001)
+( 8.428963e+001, 1.471081e-001, 6.620108e+001)
+( 8.631443e+001, 1.501461e-001, 6.585097e+001)
+( 8.838787e+001, 1.532080e-001, 6.549942e+001)
+( 9.051113e+001, 1.562689e-001, 6.510719e+001)
+( 9.268538e+001, 1.592988e-001, 6.463630e+001)
+( 9.491187e+001, 1.628802e-001, 6.437703e+001)
+( 9.719184e+001, 1.661639e-001, 6.399180e+001)
+( 9.952658e+001, 1.694915e-001, 6.359855e+001)
+( 1.019174e+002, 1.722248e-001, 6.320963e+001)
+( 1.043657e+002, 1.761257e-001, 6.278537e+001)
+( 1.068727e+002, 1.796428e-001, 6.240331e+001)
+( 1.094400e+002, 1.835500e-001, 6.193837e+001)
+( 1.120690e+002, 1.869582e-001, 6.153150e+001)
+( 1.147611e+002, 1.910945e-001, 6.103534e+001)
+( 1.175179e+002, 1.943744e-001, 6.064079e+001)
+( 1.203409e+002, 1.975581e-001, 6.025597e+001)
+( 1.232317e+002, 2.018783e-001, 5.973028e+001)
+( 1.261920e+002, 2.051046e-001, 5.932338e+001)
+( 1.292234e+002, 2.082825e-001, 5.874152e+001)
+( 1.323276e+002, 2.134785e-001, 5.830843e+001)
+( 1.355064e+002, 2.169253e-001, 5.788519e+001)
+( 1.387615e+002, 2.203987e-001, 5.745266e+001)
+( 1.420948e+002, 2.246324e-001, 5.692553e+001)
+( 1.455082e+002, 2.284663e-001, 5.644565e+001)
+( 1.490036e+002, 2.326897e-001, 5.591474e+001)
+( 1.525830e+002, 2.365868e-001, 5.542525e+001)
+( 1.562483e+002, 2.409002e-001, 5.487930e+001)
+( 1.600017e+002, 2.447315e-001, 5.439026e+001)
+( 1.638453e+002, 2.483494e-001, 5.392519e+001)
+( 1.677812e+002, 2.528348e-001, 5.335042e+001)
+( 1.718116e+002, 2.565365e-001, 5.286988e+001)
+( 1.759389e+002, 2.596351e-001, 5.225413e+001)
+( 1.801653e+002, 2.646059e-001, 5.177430e+001)
+( 1.844932e+002, 2.688456e-001, 5.125174e+001)
+( 1.889251e+002, 2.728939e-001, 5.071345e+001)
+( 1.934634e+002, 2.769503e-001, 5.016886e+001)
+( 1.981108e+002, 2.814446e-001, 4.956272e+001)
+( 2.028698e+002, 2.858687e-001, 4.896513e+001)
+( 2.077431e+002, 2.898909e-001, 4.841692e+001)
+( 2.127335e+002, 2.939053e-001, 4.786789e+001)
+( 2.178438e+002, 2.979087e-001, 4.731668e+001)
+( 2.230769e+002, 3.018943e-001, 4.676210e+001)
+( 2.284356e+002, 3.058743e-001, 4.620426e+001)
+( 2.339231e+002, 3.098287e-001, 4.564676e+001)
+( 2.395424e+002, 3.137730e-001, 4.508665e+001)
+( 2.452967e+002, 3.171632e-001, 4.448349e+001)
+( 2.511892e+002, 3.219401e-001, 4.388222e+001)
+( 2.572232e+002, 3.258912e-001, 4.331867e+001)
+( 2.634023e+002, 3.296257e-001, 4.276313e+001)
+( 2.697297e+002, 3.333510e-001, 4.220715e+001)
+( 2.762091e+002, 3.370594e-001, 4.164983e+001)
+( 2.828442e+002, 3.409827e-001, 4.105551e+001)
+( 2.896387e+002, 3.448884e-001, 4.045702e+001)
+( 2.965964e+002, 3.484655e-001, 3.990222e+001)
+( 3.037212e+002, 3.520104e-001, 3.934999e+001)
+( 3.110172e+002, 3.555208e-001, 3.879645e+001)
+( 3.184885e+002, 3.593192e-001, 3.818970e+001)
+( 3.261392e+002, 3.628452e-001, 3.762427e+001)
+( 3.339737e+002, 3.645912e-001, 3.707603e+001)
+( 3.419964e+002, 3.688953e-001, 3.653106e+001)
+( 3.502118e+002, 3.728370e-001, 3.595888e+001)
+( 3.586246e+002, 3.762824e-001, 3.537614e+001)
+( 3.672395e+002, 3.795074e-001, 3.482475e+001)
+( 3.760613e+002, 3.826331e-001, 3.428217e+001)
+( 3.850951e+002, 3.859170e-001, 3.370726e+001)
+( 3.943458e+002, 3.890000e-001, 3.315936e+001)
+( 4.038188e+002, 3.919460e-001, 3.262921e+001)
+( 4.135193e+002, 3.949323e-001, 3.208341e+001)
+( 4.234528e+002, 3.977700e-001, 3.155926e+001)
+( 4.336250e+002, 4.007437e-001, 3.100134e+001)
+( 4.440416e+002, 4.034855e-001, 3.047901e+001)
+( 4.547083e+002, 4.062306e-001, 2.995153e+001)
+( 4.656313e+002, 4.073147e-001, 2.951905e+001)
+( 4.768167e+002, 4.109218e-001, 2.893312e+001)
+( 4.882708e+002, 4.141721e-001, 2.836813e+001)
+( 5.000000e+002, 4.165860e-001, 2.786832e+001)
+( 5.120110e+002, 4.189219e-001, 2.737945e+001)
+( 5.243105e+002, 4.213357e-001, 2.687168e+001)
+( 5.369055e+002, 4.236835e-001, 2.636979e+001)
+( 5.498030e+002, 4.260011e-001, 2.587146e+001)
+( 5.630104e+002, 4.282296e-001, 2.537634e+001)
+( 5.765350e+002, 4.304006e-001, 2.488715e+001)
+( 5.903845e+002, 4.324997e-001, 2.440567e+001)
+( 6.045667e+002, 4.345077e-001, 2.394042e+001)
+( 6.190896e+002, 4.364482e-001, 2.348507e+001)
+( 6.339614e+002, 4.383970e-001, 2.301470e+001)
+( 6.491904e+002, 4.394112e-001, 2.266341e+001)
+( 6.647852e+002, 4.416381e-001, 2.215306e+001)
+( 6.807547e+002, 4.439685e-001, 2.162948e+001)
+( 6.971077e+002, 4.456716e-001, 2.118964e+001)
+( 7.138536e+002, 4.472940e-001, 2.075944e+001)
+( 7.310018e+002, 4.489146e-001, 2.032179e+001)
+( 7.485619e+002, 4.505246e-001, 1.988640e+001)
+( 7.665439e+002, 4.520808e-001, 1.945807e+001)
+( 7.849578e+002, 4.535668e-001, 1.903668e+001)
+( 8.038140e+002, 4.550256e-001, 1.861561e+001)
+( 8.231232e+002, 4.564405e-001, 1.820144e+001)
+( 8.428963e+002, 4.577811e-001, 1.779200e+001)
+( 8.631443e+002, 4.590994e-001, 1.738710e+001)
+( 8.838787e+002, 4.601980e-001, 1.707833e+001)
+( 9.051113e+002, 4.614197e-001, 1.668521e+001)
+( 9.268538e+002, 4.627421e-001, 1.622889e+001)
+( 9.491187e+002, 4.638993e-001, 1.584351e+001)
+( 9.719184e+002, 4.650174e-001, 1.546310e+001)
+( 9.952658e+002, 4.661275e-001, 1.508690e+001)
+( 1.019174e+003, 4.670972e-001, 1.474291e+001)
+( 1.043657e+003, 4.682655e-001, 1.431688e+001)
+( 1.068727e+003, 4.690661e-001, 1.401322e+001)
+( 1.094400e+003, 4.701673e-001, 1.359925e+001)
+( 1.120690e+003, 4.709427e-001, 1.330192e+001)
+( 1.147611e+003, 4.719219e-001, 1.290678e+001)
+( 1.175179e+003, 4.726953e-001, 1.259164e+001)
+( 1.203409e+003, 4.735438e-001, 1.223560e+001)
+( 1.232317e+003, 4.743139e-001, 1.194339e+001)
+( 1.261920e+003, 4.751548e-001, 1.159768e+001)
+( 1.292234e+003, 4.758087e-001, 1.124061e+001)
+( 1.323276e+003, 4.764497e-001, 1.094718e+001)
+( 1.355064e+003, 4.771893e-001, 1.059415e+001)
+( 1.387615e+003, 4.777457e-001, 1.032006e+001)
+( 1.420948e+003, 4.784683e-001, 9.960193e+000)
+( 1.455082e+003, 4.791237e-001, 9.618566e+000)
+( 1.490036e+003, 4.796254e-001, 9.352034e+000)
+( 1.525830e+003, 4.802404e-001, 9.017718e+000)
+( 1.562483e+003, 4.807363e-001, 8.753878e+000)
+( 1.600017e+003, 4.812753e-001, 8.430761e+000)
+( 1.638453e+003, 4.817602e-001, 8.158247e+000)
+( 1.677812e+003, 4.821554e-001, 7.845817e+000)
+( 1.718116e+003, 4.825511e-001, 7.562936e+000)
+( 1.759389e+003, 4.831277e-001, 7.281048e+000)
+( 1.801653e+003, 4.835422e-001, 7.005376e+000)
+( 1.844932e+003, 4.839756e-001, 6.677472e+000)
+( 1.889251e+003, 4.843382e-001, 6.412477e+000)
+( 1.934634e+003, 4.847192e-001, 6.146486e+000)
+( 1.981108e+003, 4.850778e-001, 5.883003e+000)
+( 2.028698e+003, 4.854439e-001, 5.570911e+000)
+( 2.077431e+003, 4.857532e-001, 5.312650e+000)
+( 2.127335e+003, 4.860275e-001, 5.057556e+000)
+( 2.178438e+003, 4.863678e-001, 4.795885e+000)
+( 2.230769e+003, 4.865925e-001, 4.541842e+000)
+( 2.284356e+003, 4.868802e-001, 4.240973e+000)
+( 2.339231e+003, 4.871179e-001, 4.006255e+000)
+( 2.395424e+003, 4.873310e-001, 3.765657e+000)
+( 2.452967e+003, 4.876542e-001, 3.463261e+000)
+( 2.511892e+003, 4.878427e-001, 3.208540e+000)
+( 2.572232e+003, 4.879817e-001, 2.963955e+000)
+( 2.634023e+003, 4.882126e-001, 2.681130e+000)
+( 2.697297e+003, 4.883643e-001, 2.431507e+000)
+( 2.762091e+003, 4.885226e-001, 2.189151e+000)
+( 2.828442e+003, 4.886672e-001, 1.913003e+000)
+( 2.896387e+003, 4.888177e-001, 1.664157e+000)
+( 2.965964e+003, 4.889761e-001, 1.421330e+000)
+( 3.037212e+003, 4.890606e-001, 1.142566e+000)
+( 3.110172e+003, 4.891988e-001, 8.976561e-001)
+( 3.184885e+003, 4.892800e-001, 6.512417e-001)
+( 3.261392e+003, 4.893566e-001, 3.766687e-001)
+( 3.339737e+003, 4.894177e-001, 1.222434e-001)
+( 3.419964e+003, 4.895126e-001,-1.367660e-001)
+( 3.502118e+003, 4.895231e-001,-3.745804e-001)
+( 3.586246e+003, 4.895971e-001,-6.348904e-001)
+( 3.672395e+003, 4.895848e-001,-9.012236e-001)
+( 3.760613e+003, 4.896154e-001,-1.164651e+000)
+( 3.850951e+003, 4.896061e-001,-1.431549e+000)
+( 3.943458e+003, 4.896342e-001,-1.700898e+000)
+( 4.038188e+003, 4.896168e-001,-1.947109e+000)
+( 4.135193e+003, 4.895770e-001,-2.213871e+000)
+( 4.234528e+003, 4.895298e-001,-2.482720e+000)
+( 4.336250e+003, 4.895191e-001,-2.758594e+000)
+( 4.440416e+003, 4.894494e-001,-3.029232e+000)
+( 4.547083e+003, 4.894445e-001,-3.294191e+000)
+( 4.656313e+003, 4.892574e-001,-3.565351e+000)
+( 4.768167e+003, 4.891405e-001,-3.832257e+000)
+( 4.882708e+003, 4.890481e-001,-4.121392e+000)
+( 5.000000e+003, 4.889062e-001,-4.398157e+000)
+( 5.120110e+003, 4.887711e-001,-4.674701e+000)
+( 5.243105e+003, 4.886406e-001,-4.971751e+000)
+( 5.369055e+003, 4.884606e-001,-5.265702e+000)
+( 5.498030e+003, 4.882581e-001,-5.548361e+000)
+( 5.630104e+003, 4.880390e-001,-5.850194e+000)
+( 5.765350e+003, 4.878278e-001,-6.145435e+000)
+( 5.903845e+003, 4.875840e-001,-6.440870e+000)
+( 6.045667e+003, 4.873295e-001,-6.763102e+000)
+( 6.190896e+003, 4.870739e-001,-7.069672e+000)
+( 6.339614e+003, 4.868443e-001,-7.376655e+000)
+( 6.491904e+003, 4.864898e-001,-7.685588e+000)
+( 6.647852e+003, 4.861395e-001,-8.009626e+000)
+( 6.807547e+003, 4.858489e-001,-8.330542e+000)
+( 6.971077e+003, 4.854538e-001,-8.663453e+000)
+( 7.138536e+003, 4.850716e-001,-8.995238e+000)
+( 7.310018e+003, 4.846824e-001,-9.337233e+000)
+( 7.485619e+003, 4.842019e-001,-9.679652e+000)
+( 7.665439e+003, 4.837334e-001,-1.003486e+001)
+( 7.849578e+003, 4.832458e-001,-1.038310e+001)
+( 8.038140e+003, 4.827298e-001,-1.073976e+001)
+( 8.231232e+003, 4.822530e-001,-1.110171e+001)
+( 8.428963e+003, 4.816487e-001,-1.147994e+001)
+( 8.631443e+003, 4.810830e-001,-1.185149e+001)
+( 8.838787e+003, 4.804266e-001,-1.222492e+001)
+( 9.051113e+003, 4.797936e-001,-1.261569e+001)
+( 9.268538e+003, 4.791263e-001,-1.301256e+001)
+( 9.491187e+003, 4.783535e-001,-1.340614e+001)
+( 9.719184e+003, 4.775603e-001,-1.380966e+001)
+( 9.952658e+003, 4.767978e-001,-1.421572e+001)
+( 1.019174e+004, 4.759275e-001,-1.465295e+001)
+( 1.043657e+004, 4.751115e-001,-1.507281e+001)
+( 1.068727e+004, 4.742841e-001,-1.554632e+001)
+( 1.094400e+004, 4.731331e-001,-1.626584e+001)
+( 1.120690e+004, 4.720200e-001,-1.678083e+001)
+( 1.147611e+004, 4.708807e-001,-1.725055e+001)
+( 1.175179e+004, 4.696787e-001,-1.772688e+001)
+( 1.203409e+004, 4.684472e-001,-1.821065e+001)
+( 1.232317e+004, 4.671872e-001,-1.870069e+001)
+( 1.261920e+004, 4.658580e-001,-1.919871e+001)
+( 1.292234e+004, 4.644336e-001,-1.970583e+001)
+( 1.323276e+004, 4.629637e-001,-2.022010e+001)
+( 1.355064e+004, 4.614547e-001,-2.074274e+001)
+( 1.387615e+004, 4.598647e-001,-2.127151e+001)
+( 1.420948e+004, 4.582225e-001,-2.180824e+001)
+( 1.455082e+004, 4.565257e-001,-2.235188e+001)
+( 1.490036e+004, 4.547960e-001,-2.290528e+001)
+( 1.525830e+004, 4.529694e-001,-2.346557e+001)
+( 1.562483e+004, 4.510802e-001,-2.403353e+001)
+( 1.600017e+004, 4.491170e-001,-2.461092e+001)
+( 1.638453e+004, 4.470942e-001,-2.519571e+001)
+( 1.677812e+004, 4.449668e-001,-2.578754e+001)
+( 1.718116e+004, 4.427765e-001,-2.638867e+001)
+( 1.759389e+004, 4.405205e-001,-2.699959e+001)
+( 1.801653e+004, 4.381768e-001,-2.761467e+001)
+( 1.844932e+004, 4.357631e-001,-2.823721e+001)
+( 1.889251e+004, 4.332804e-001,-2.886581e+001)
+( 1.934634e+004, 4.307261e-001,-2.950203e+001)
+( 1.981108e+004, 4.280778e-001,-3.014262e+001)
+( 2.028698e+004, 4.253471e-001,-3.079469e+001)
+( 2.077431e+004, 4.225378e-001,-3.145186e+001)
+( 2.127335e+004, 4.196375e-001,-3.211620e+001)
+( 2.178438e+004, 4.166509e-001,-3.278997e+001)
+( 2.230769e+004, 4.135803e-001,-3.346564e+001)
+( 2.284356e+004, 4.104316e-001,-3.414679e+001)
+( 2.339231e+004, 4.072159e-001,-3.483318e+001)
+( 2.395424e+004, 4.039150e-001,-3.552649e+001)
+( 2.452967e+004, 4.005378e-001,-3.622473e+001)
+( 2.511892e+004, 3.970879e-001,-3.692471e+001)
+( 2.572232e+004, 3.935486e-001,-3.762995e+001)
+( 2.634023e+004, 3.899226e-001,-3.833765e+001)
+( 2.697297e+004, 3.862148e-001,-3.904629e+001)
+( 2.762091e+004, 3.824386e-001,-3.975691e+001)
+( 2.828442e+004, 3.786144e-001,-4.047463e+001)
+( 2.896387e+004, 3.746871e-001,-4.119367e+001)
+( 2.965964e+004, 3.707242e-001,-4.191304e+001)
+( 3.037212e+004, 3.666866e-001,-4.263708e+001)
+( 3.110172e+004, 3.625841e-001,-4.336042e+001)
+( 3.184885e+004, 3.584166e-001,-4.408312e+001)
+( 3.261392e+004, 3.542069e-001,-4.480781e+001)
+( 3.339737e+004, 3.499456e-001,-4.553203e+001)
+( 3.419964e+004, 3.456285e-001,-4.625500e+001)
+( 3.502118e+004, 3.412404e-001,-4.697777e+001)
+( 3.586246e+004, 3.368273e-001,-4.769555e+001)
+( 3.672395e+004, 3.323737e-001,-4.841589e+001)
+( 3.760613e+004, 3.278493e-001,-4.913568e+001)
+( 3.850951e+004, 3.233136e-001,-4.985336e+001)
+( 3.943458e+004, 3.187780e-001,-5.056934e+001)
+( 4.038188e+004, 3.142000e-001,-5.128437e+001)
+( 4.135193e+004, 3.095795e-001,-5.199444e+001)
+( 4.234528e+004, 3.049431e-001,-5.269421e+001)
+( 4.336250e+004, 3.003161e-001,-5.338925e+001)
+( 4.440416e+004, 2.956494e-001,-5.407757e+001)
+( 4.547083e+004, 2.909487e-001,-5.476540e+001)
+( 4.656313e+004, 2.862849e-001,-5.544673e+001)
+( 4.768167e+004, 2.816429e-001,-5.612156e+001)
+( 4.882708e+004, 2.769914e-001,-5.679349e+001)
+( 5.000000e+004, 2.723311e-001,-5.745969e+001)
+( 5.120110e+004, 2.677039e-001,-5.812562e+001)
+( 5.243105e+004, 2.630868e-001,-5.877711e+001)
+( 5.369055e+004, 2.584768e-001,-5.942754e+001)
+( 5.498030e+004, 2.538874e-001,-6.006499e+001)
+( 5.630104e+004, 2.493112e-001,-6.069298e+001)
+( 5.765350e+004, 2.447807e-001,-6.131405e+001)
+( 5.903845e+004, 2.402674e-001,-6.192714e+001)
+( 6.045667e+004, 2.357718e-001,-6.253821e+001)
+( 6.190896e+004, 2.313252e-001,-6.313543e+001)
+( 6.339614e+004, 2.269142e-001,-6.373256e+001)
+( 6.491904e+004, 2.225553e-001,-6.432691e+001)
+( 6.647852e+004, 2.182479e-001,-6.490591e+001)
+( 6.807547e+004, 2.139656e-001,-6.548193e+001)
+( 6.971077e+004, 2.097190e-001,-6.603753e+001)
+( 7.138536e+004, 2.055382e-001,-6.659074e+001)
+( 7.310018e+004, 2.013715e-001,-6.712720e+001)
+( 7.485619e+004, 1.972501e-001,-6.765823e+001)
+( 7.665439e+004, 1.932120e-001,-6.817551e+001)
+( 7.849578e+004, 1.892125e-001,-6.868876e+001)
+( 8.038140e+004, 1.852585e-001,-6.919324e+001)
+( 8.231232e+004, 1.813965e-001,-6.969675e+001)
+( 8.428963e+004, 1.775443e-001,-7.018815e+001)
+( 8.631443e+004, 1.737761e-001,-7.067669e+001)
+( 8.838787e+004, 1.700474e-001,-7.115377e+001)
+( 9.051113e+004, 1.663742e-001,-7.162388e+001)
+( 9.268538e+004, 1.627275e-001,-7.209167e+001)
+( 9.491187e+004, 1.591962e-001,-7.254018e+001)
+( 9.719184e+004, 1.556878e-001,-7.297988e+001)
+( 9.952658e+004, 1.522594e-001,-7.341490e+001)
+( 1.019174e+005, 1.488858e-001,-7.383867e+001)
+( 1.043657e+005, 1.455794e-001,-7.425527e+001)
+( 1.068727e+005, 1.423265e-001,-7.466947e+001)
+( 1.094400e+005, 1.391143e-001,-7.506798e+001)
+( 1.120690e+005, 1.359735e-001,-7.546106e+001)
+( 1.147611e+005, 1.328621e-001,-7.585046e+001)
+( 1.175179e+005, 1.298284e-001,-7.624091e+001)
+( 1.203409e+005, 1.268671e-001,-7.660053e+001)
+( 1.232317e+005, 1.239253e-001,-7.696776e+001)
+( 1.261920e+005, 1.210714e-001,-7.733116e+001)
+( 1.292234e+005, 1.182687e-001,-7.768182e+001)
+( 1.323276e+005, 1.155264e-001,-7.801533e+001)
+( 1.355064e+005, 1.127929e-001,-7.834148e+001)
+( 1.387615e+005, 1.101370e-001,-7.866772e+001)
+( 1.420948e+005, 1.075579e-001,-7.898045e+001)
+( 1.455082e+005, 1.049978e-001,-7.929391e+001)
+( 1.490036e+005, 1.025053e-001,-7.959359e+001)
+( 1.525830e+005, 1.000714e-001,-7.988734e+001)
+( 1.562483e+005, 9.768719e-002,-8.017976e+001)
+( 1.600017e+005, 9.534569e-002,-8.046052e+001)
+( 1.638453e+005, 9.304386e-002,-8.072964e+001)
+( 1.677812e+005, 9.079846e-002,-8.099615e+001)
+( 1.718116e+005, 8.859462e-002,-8.125052e+001)
+( 1.759389e+005, 8.642376e-002,-8.151090e+001)
+( 1.801653e+005, 8.433012e-002,-8.176796e+001)
+( 1.844932e+005, 8.226906e-002,-8.202071e+001)
+( 1.889251e+005, 8.024582e-002,-8.226864e+001)
+( 1.934634e+005, 7.827095e-002,-8.250540e+001)
+( 1.981108e+005, 7.635265e-002,-8.275124e+001)
+( 2.028698e+005, 7.445357e-002,-8.297251e+001)
+( 2.077431e+005, 7.259885e-002,-8.315760e+001)
+( 2.127335e+005, 7.078930e-002,-8.335155e+001)
+( 2.178438e+005, 6.902770e-002,-8.355251e+001)
+( 2.230769e+005, 6.731687e-002,-8.375049e+001)
+( 2.284356e+005, 6.563525e-002,-8.395673e+001)
+( 2.339231e+005, 6.398067e-002,-8.417322e+001)
+( 2.395424e+005, 6.238017e-002,-8.438328e+001)
+( 2.452967e+005, 6.081184e-002,-8.454770e+001)
+( 2.511892e+005, 5.923859e-002,-8.472546e+001)
+( 2.572232e+005, 5.772415e-002,-8.487357e+001)
+( 2.634023e+005, 5.622974e-002,-8.503204e+001)
+( 2.697297e+005, 5.476392e-002,-8.517994e+001)
+( 2.762091e+005, 5.331681e-002,-8.536969e+001)
+( 2.828442e+005, 5.192918e-002,-8.553611e+001)
+( 2.896387e+005, 5.058169e-002,-8.570171e+001)
+( 2.965964e+005, 4.924776e-002,-8.583101e+001)
+( 3.037212e+005, 4.796031e-002,-8.596622e+001)
+( 3.110172e+005, 4.670694e-002,-8.610860e+001)
+( 3.184885e+005, 4.547242e-002,-8.624534e+001)
+( 3.261392e+005, 4.424398e-002,-8.638326e+001)
+( 3.339737e+005, 4.304069e-002,-8.650687e+001)
+( 3.419964e+005, 4.188516e-002,-8.663866e+001)
+( 3.502118e+005, 4.074298e-002,-8.675791e+001)
+( 3.586246e+005, 3.962840e-002,-8.688464e+001)
+( 3.672395e+005, 3.852330e-002,-8.695383e+001)
+( 3.760613e+005, 3.745788e-002,-8.703000e+001)
+( 3.850951e+005, 3.640754e-002,-8.711810e+001)
+( 3.943458e+005, 3.540779e-002,-8.717825e+001)
+( 4.038188e+005, 3.441408e-002,-8.723686e+001)
+( 4.135193e+005, 3.346384e-002,-8.729514e+001)
+( 4.234528e+005, 3.252714e-002,-8.736831e+001)
+( 4.336250e+005, 3.159469e-002,-8.744338e+001)
+( 4.440416e+005, 3.068221e-002,-8.753293e+001)
+( 4.547083e+005, 2.978082e-002,-8.759307e+001)
+( 4.656313e+005, 2.889764e-002,-8.763885e+001)
+( 4.768167e+005, 2.802315e-002,-8.770876e+001)
+( 4.882708e+005, 2.719258e-002,-8.777369e+001)
+( 5.000000e+005, 2.637044e-002,-8.783053e+001)
+( 5.120110e+005, 2.557325e-002,-8.785894e+001)
+( 5.243105e+005, 2.477187e-002,-8.785734e+001)
+( 5.369055e+005, 2.399524e-002,-8.785512e+001)
+( 5.498030e+005, 2.323154e-002,-8.785978e+001)
+( 5.630104e+005, 2.247358e-002,-8.790080e+001)
+( 5.765350e+005, 2.173387e-002,-8.792330e+001)
+( 5.903845e+005, 2.101597e-002,-8.802626e+001)
+( 6.045667e+005, 2.031960e-002,-8.806694e+001)
+( 6.190896e+005, 1.964857e-002,-8.807582e+001)
+( 6.339614e+005, 1.895405e-002,-8.809921e+001)
+( 6.491904e+005, 1.827176e-002,-8.811031e+001)
+( 6.647852e+005, 1.761270e-002,-8.808237e+001)
+( 6.807547e+005, 1.697113e-002,-8.807114e+001)
+( 6.971077e+005, 1.631981e-002,-8.806190e+001)
+( 7.138536e+005, 1.571122e-002,-8.799449e+001)
+( 7.310018e+005, 1.513460e-002,-8.791887e+001)
+( 7.485619e+005, 1.455129e-002,-8.793981e+001)
+( 7.665439e+005, 1.397208e-002,-8.789073e+001)
+( 7.849578e+005, 1.340184e-002,-8.786408e+001)
+( 8.038140e+005, 1.281756e-002,-8.782748e+001)
+( 8.231232e+005, 1.225445e-002,-8.779358e+001)
+( 8.428963e+005, 1.168208e-002,-8.773843e+001)
+( 8.631443e+005, 1.112755e-002,-8.764646e+001)
+( 8.838787e+005, 1.057463e-002,-8.759152e+001)
+( 9.051113e+005, 1.005261e-002,-8.760049e+001)
+( 9.268538e+005, 9.559816e-003,-8.748026e+001)
+( 9.491187e+005, 9.048689e-003,-8.736996e+001)
+( 9.719184e+005, 8.536957e-003,-8.709880e+001)
+( 9.952658e+005, 8.034485e-003,-8.686566e+001)
+( 1.019174e+006, 7.518288e-003,-8.660589e+001)
+( 1.043657e+006, 7.037309e-003,-8.631776e+001)
+( 1.068727e+006, 6.528712e-003,-8.582712e+001)
+( 1.094400e+006, 6.048330e-003,-8.558116e+001)
+( 1.120690e+006, 5.587366e-003,-8.535409e+001)
+( 1.147611e+006, 5.133201e-003,-8.454509e+001)
+( 1.175179e+006, 4.659026e-003,-8.370914e+001)
+( 1.203409e+006, 4.200472e-003,-8.312231e+001)
+( 1.232317e+006, 3.723615e-003,-8.184880e+001)
+( 1.261920e+006, 3.265219e-003,-8.042373e+001)
+( 1.292234e+006, 2.794745e-003,-7.853448e+001)
+( 1.323276e+006, 2.332859e-003,-7.574779e+001)
+( 1.355064e+006, 1.909166e-003,-7.104448e+001)
+( 1.387615e+006, 1.525099e-003,-6.453807e+001)
+( 1.420948e+006, 1.192082e-003,-5.165616e+001)
+( 1.455082e+006, 9.662995e-004,-3.220425e+001)
+( 1.490036e+006, 8.805690e-004,-1.074298e+001)
+( 1.525830e+006, 8.835419e-004, 1.164531e+001)
+( 1.562483e+006, 9.860737e-004, 3.295809e+001)
+( 1.600017e+006, 1.208938e-003, 5.049484e+001)
+( 1.638453e+006, 1.565919e-003, 6.207684e+001)
+( 1.677812e+006, 1.978727e-003, 6.758806e+001)
+( 1.718116e+006, 2.421524e-003, 7.154300e+001)
+( 1.759389e+006, 2.872899e-003, 7.405798e+001)
+( 1.801653e+006, 3.278343e-003, 7.607558e+001)
+( 1.844932e+006, 3.713941e-003, 7.707110e+001)
+( 1.889251e+006, 4.141439e-003, 7.840416e+001)
+( 1.934634e+006, 4.586018e-003, 7.971119e+001)
+( 1.981108e+006, 5.025057e-003, 8.057934e+001)
+( 2.028698e+006, 5.475933e-003, 8.125060e+001)
+( 2.077431e+006, 5.896948e-003, 8.174851e+001)
+( 2.127335e+006, 6.317231e-003, 8.209286e+001)
+( 2.178438e+006, 6.759601e-003, 8.222074e+001)
+( 2.230769e+006, 7.176300e-003, 8.228662e+001)
+( 2.284356e+006, 7.581150e-003, 8.274341e+001)
+( 2.339231e+006, 7.994753e-003, 8.300694e+001)
+( 2.395424e+006, 8.474376e-003, 8.345070e+001)
+( 2.452967e+006, 8.916788e-003, 8.370767e+001)
+( 2.511892e+006, 9.348344e-003, 8.394143e+001)
+( 2.572232e+006, 9.802156e-003, 8.431017e+001)
+( 2.634023e+006, 1.026444e-002, 8.437086e+001)
+( 2.697297e+006, 1.072165e-002, 8.439726e+001)
+( 2.762091e+006, 1.118864e-002, 8.441930e+001)
+( 2.828442e+006, 1.170062e-002, 8.463157e+001)
+( 2.896387e+006, 1.217794e-002, 8.469987e+001)
+( 2.965964e+006, 1.269979e-002, 8.460588e+001)
+( 3.037212e+006, 1.318095e-002, 8.436721e+001)
+( 3.110172e+006, 1.368200e-002, 8.400676e+001)
+( 3.184885e+006, 1.417400e-002, 8.367893e+001)
+( 3.261392e+006, 1.469340e-002, 8.334755e+001)
+( 3.339737e+006, 1.516798e-002, 8.312976e+001)
+( 3.419964e+006, 1.569451e-002, 8.315344e+001)
+( 3.502118e+006, 1.621293e-002, 8.312248e+001)
+( 3.586246e+006, 1.675727e-002, 8.309551e+001)
+( 3.672395e+006, 1.729115e-002, 8.306155e+001)
+( 3.760613e+006, 1.783275e-002, 8.287799e+001)
+( 3.850951e+006, 1.842732e-002, 8.267480e+001)
+( 3.943458e+006, 1.900670e-002, 8.274781e+001)
+( 4.038188e+006, 1.958239e-002, 8.295289e+001)
+( 4.135193e+006, 2.012606e-002, 8.314175e+001)
+( 4.234528e+006, 2.070147e-002, 8.324747e+001)
+( 4.336250e+006, 2.128149e-002, 8.336330e+001)
+( 4.440416e+006, 2.185321e-002, 8.340985e+001)