**************************************************
* Manufacturer:           Wurth Elektronik 
* Kinds:                  Line Filter 
* Matchcode:              WE-CLFS
* Library Type:           LTspice
* Version:                rev22a
* Created/modified by:    Ella      
* Date and Time:          2022-05-23
* Team:                   eiSos EDA Service  
* Contact:                libraries@we-online.com
**************************************************
* Copyright(C) 2022 Würth Elektronik eiSos GmbH & Co. KG
* All Rights Reserved.
**************************************************
* Disclaimer: While Würth Elektronik eiSos has made every reasonable effort to ensure the accuracy
* of the simulation models provided, Würth Elektronik eiSos does not guarantee the exemption of error on
* the simulation models, nor does Würth Elektronik eiSos guarantee that the simulation model is current.
* Würth Elektronik eiSos reserves the right to make any adjustments at any time without notice.
* Würth Elektronik eiSos expressly disclaims all implied warranties regarding this simulation model.
**************************************************
* BEGIN ANSOFT HEADER
* node 1    Port1
* node 2    Port2
* node 3    Port3
* node 4    Port4
*     Date: Mon Apr 23 14:42:43 2018
*    Notes: Frequency range: 10000 to 1e+009 Hz, 801 points
*         : Maximum number of poles: 10000
*         : S-Matrix fitting error tolerance: 0.005
*         : Causality check tolerance: auto
*         : Passivity enforcement: on (by iterated fitting)
*         : Causality enforcement: off
*         : Fitting method: TWA
*         : Matrix fitting: By entire matrix
*         : Ensure Z-parameter accuracy: on
*         : Relative error control: off
*         : Common ground option: on
*         : Final fitting error: 0.00565634
*         : Final model order: 296
* END ANSOFT HEADER

************************************************************************************************************
*****************************************----810912001----**************************************************
************************************************************************************************************
************************************************************************************************************

.subckt 810912001 0 1 2 3 4
Vam1 1 n2 dc 0
Rport1 n2 0 50
Vam2 2 n4 dc 0
Rport2 n4 0 50
Vam3 3 n6 dc 0
Rport3 n6 0 50
Vam4 4 n8 dc 0
Rport4 n8 0 50

Fi1 0 ni1 Vam1 50
Gi1 0 ni1 1 0 1
Rt1 ni1 0 1
Fi2 0 ni2 Vam2 50
Gi2 0 ni2 2 0 1
Rt2 ni2 0 1
Fi3 0 ni3 Vam3 50
Gi3 0 ni3 3 0 1
Rt3 ni3 0 1
Fi4 0 ni4 Vam4 50
Gi4 0 ni4 4 0 1
Rt4 ni4 0 1

Ca1 ns1 0 1e-012
Ra1 ns1 0 54695153.1588
Ca2 ns2 0 1e-012
Ra2 ns2 0 22677856.93
Ca3 ns3 0 1e-012
Ca4 ns4 0 1e-012
Ra3 ns3 0 19509638.3952
Ra4 ns4 0 19509638.3952
Ga3 ns3 0 ns4 0 3.7465981693e-007
Ga4 ns4 0 ns3 0 -3.7465981693e-007
Ca5 ns5 0 1e-012
Ra5 ns5 0 121249.932424
Ca6 ns6 0 1e-012
Ra6 ns6 0 23950.1994779
Ca7 ns7 0 1e-012
Ca8 ns8 0 1e-012
Ra7 ns7 0 138246.69877
Ra8 ns8 0 138246.69877
Ga7 ns7 0 ns8 0 0.000112188134926
Ga8 ns8 0 ns7 0 -0.000112188134926
Ca9 ns9 0 1e-012
Ca10 ns10 0 1e-012
Ra9 ns9 0 74549.2634597
Ra10 ns10 0 74549.2634597
Ga9 ns9 0 ns10 0 0.000199541350737
Ga10 ns10 0 ns9 0 -0.000199541350737
Ca11 ns11 0 1e-012
Ca12 ns12 0 1e-012
Ra11 ns11 0 42208.5046626
Ra12 ns12 0 42208.5046626
Ga11 ns11 0 ns12 0 -0.000311758373611
Ga12 ns12 0 ns11 0 0.000311758373611
Ca13 ns13 0 1e-012
Ca14 ns14 0 1e-012
Ra13 ns13 0 18509.8346023
Ra14 ns14 0 18509.8346023
Ga13 ns13 0 ns14 0 0.000359225868584
Ga14 ns14 0 ns13 0 -0.000359225868584
Ca15 ns15 0 1e-012
Ca16 ns16 0 1e-012
Ra15 ns15 0 26229.09044
Ra16 ns16 0 26229.09044
Ga15 ns15 0 ns16 0 0.000625856614091
Ga16 ns16 0 ns15 0 -0.000625856614091
Ca17 ns17 0 1e-012
Ca18 ns18 0 1e-012
Ra17 ns17 0 21198.3632353
Ra18 ns18 0 21198.3632353
Ga17 ns17 0 ns18 0 0.000707561695434
Ga18 ns18 0 ns17 0 -0.000707561695434
Ca19 ns19 0 1e-012
Ra19 ns19 0 1097.7137108
Ca20 ns20 0 1e-012
Ca21 ns21 0 1e-012
Ra20 ns20 0 12065.1342885
Ra21 ns21 0 12065.1342885
Ga20 ns20 0 ns21 0 0.000975734181656
Ga21 ns21 0 ns20 0 -0.000975734181656
Ca22 ns22 0 1e-012
Ca23 ns23 0 1e-012
Ra22 ns22 0 10052.4151569
Ra23 ns23 0 10052.4151569
Ga22 ns22 0 ns23 0 0.00142143845267
Ga23 ns23 0 ns22 0 -0.00142143845267
Ca24 ns24 0 1e-012
Ca25 ns25 0 1e-012
Ra24 ns24 0 7797.15833261
Ra25 ns25 0 7797.15833261
Ga24 ns24 0 ns25 0 0.00153783976406
Ga25 ns25 0 ns24 0 -0.00153783976406
Ca26 ns26 0 1e-012
Ra26 ns26 0 635.943454195
Ca27 ns27 0 1e-012
Ca28 ns28 0 1e-012
Ra27 ns27 0 6825.30881652
Ra28 ns28 0 6825.30881652
Ga27 ns27 0 ns28 0 0.00167031063461
Ga28 ns28 0 ns27 0 -0.00167031063461
Ca29 ns29 0 1e-012
Ca30 ns30 0 1e-012
Ra29 ns29 0 2489.79400904
Ra30 ns30 0 2489.79400904
Ga29 ns29 0 ns30 0 -0.00216493640525
Ga30 ns30 0 ns29 0 0.00216493640525
Ca31 ns31 0 1e-012
Ca32 ns32 0 1e-012
Ra31 ns31 0 7701.57354894
Ra32 ns32 0 7701.57354894
Ga31 ns31 0 ns32 0 0.00222875618145
Ga32 ns32 0 ns31 0 -0.00222875618145
Ca33 ns33 0 1e-012
Ca34 ns34 0 1e-012
Ra33 ns33 0 6047.44334554
Ra34 ns34 0 6047.44334554
Ga33 ns33 0 ns34 0 0.00239240936814
Ga34 ns34 0 ns33 0 -0.00239240936814
Ca35 ns35 0 1e-012
Ca36 ns36 0 1e-012
Ra35 ns35 0 5770.93672844
Ra36 ns36 0 5770.93672844
Ga35 ns35 0 ns36 0 0.00267448696092
Ga36 ns36 0 ns35 0 -0.00267448696092
Ca37 ns37 0 1e-012
Ca38 ns38 0 1e-012
Ra37 ns37 0 3588.75975171
Ra38 ns38 0 3588.75975171
Ga37 ns37 0 ns38 0 0.00267109105507
Ga38 ns38 0 ns37 0 -0.00267109105507
Ca39 ns39 0 1e-012
Ca40 ns40 0 1e-012
Ra39 ns39 0 5600.3927863
Ra40 ns40 0 5600.3927863
Ga39 ns39 0 ns40 0 0.00300926956986
Ga40 ns40 0 ns39 0 -0.00300926956986
Ca41 ns41 0 1e-012
Ca42 ns42 0 1e-012
Ra41 ns41 0 5561.01408599
Ra42 ns42 0 5561.01408599
Ga41 ns41 0 ns42 0 0.00317541353468
Ga42 ns42 0 ns41 0 -0.00317541353468
Ca43 ns43 0 1e-012
Ca44 ns44 0 1e-012
Ra43 ns43 0 5580.34127395
Ra44 ns44 0 5580.34127395
Ga43 ns43 0 ns44 0 0.00359314992897
Ga44 ns44 0 ns43 0 -0.00359314992897
Ca45 ns45 0 1e-012
Ca46 ns46 0 1e-012
Ra45 ns45 0 3645.03602327
Ra46 ns46 0 3645.03602327
Ga45 ns45 0 ns46 0 -0.00374795619522
Ga46 ns46 0 ns45 0 0.00374795619522
Ca47 ns47 0 1e-012
Ca48 ns48 0 1e-012
Ra47 ns47 0 4287.69921234
Ra48 ns48 0 4287.69921234
Ga47 ns47 0 ns48 0 0.00406097624502
Ga48 ns48 0 ns47 0 -0.00406097624502
Ca49 ns49 0 1e-012
Ca50 ns50 0 1e-012
Ra49 ns49 0 3455.04134993
Ra50 ns50 0 3455.04134993
Ga49 ns49 0 ns50 0 0.00433498082371
Ga50 ns50 0 ns49 0 -0.00433498082371
Ca51 ns51 0 1e-012
Ca52 ns52 0 1e-012
Ra51 ns51 0 3568.17313167
Ra52 ns52 0 3568.17313167
Ga51 ns51 0 ns52 0 0.00476639779804
Ga52 ns52 0 ns51 0 -0.00476639779804
Ca53 ns53 0 1e-012
Ca54 ns54 0 1e-012
Ra53 ns53 0 3284.55801564
Ra54 ns54 0 3284.55801564
Ga53 ns53 0 ns54 0 0.00518740076133
Ga54 ns54 0 ns53 0 -0.00518740076133
Ca55 ns55 0 1e-012
Ca56 ns56 0 1e-012
Ra55 ns55 0 4014.86514635
Ra56 ns56 0 4014.86514635
Ga55 ns55 0 ns56 0 0.00553135046259
Ga56 ns56 0 ns55 0 -0.00553135046259
Ca57 ns57 0 1e-012
Ca58 ns58 0 1e-012
Ra57 ns57 0 3493.94678717
Ra58 ns58 0 3493.94678717
Ga57 ns57 0 ns58 0 0.00609452366223
Ga58 ns58 0 ns57 0 -0.00609452366223
Ca59 ns59 0 1e-012
Ca60 ns60 0 1e-012
Ra59 ns59 0 1246.04951892
Ra60 ns60 0 1246.04951892
Ga59 ns59 0 ns60 0 0.0064190072594
Ga60 ns60 0 ns59 0 -0.0064190072594
Ca61 ns61 0 1e-012
Ra61 ns61 0 151.193377117
Ca62 ns62 0 1e-012
Ra62 ns62 0 54695153.1588
Ca63 ns63 0 1e-012
Ra63 ns63 0 22677856.93
Ca64 ns64 0 1e-012
Ca65 ns65 0 1e-012
Ra64 ns64 0 19509638.3952
Ra65 ns65 0 19509638.3952
Ga64 ns64 0 ns65 0 3.7465981693e-007
Ga65 ns65 0 ns64 0 -3.7465981693e-007
Ca66 ns66 0 1e-012
Ra66 ns66 0 121249.932424
Ca67 ns67 0 1e-012
Ra67 ns67 0 23950.1994779
Ca68 ns68 0 1e-012
Ca69 ns69 0 1e-012
Ra68 ns68 0 138246.69877
Ra69 ns69 0 138246.69877
Ga68 ns68 0 ns69 0 0.000112188134926
Ga69 ns69 0 ns68 0 -0.000112188134926
Ca70 ns70 0 1e-012
Ca71 ns71 0 1e-012
Ra70 ns70 0 74549.2634597
Ra71 ns71 0 74549.2634597
Ga70 ns70 0 ns71 0 0.000199541350737
Ga71 ns71 0 ns70 0 -0.000199541350737
Ca72 ns72 0 1e-012
Ca73 ns73 0 1e-012
Ra72 ns72 0 42208.5046626
Ra73 ns73 0 42208.5046626
Ga72 ns72 0 ns73 0 -0.000311758373611
Ga73 ns73 0 ns72 0 0.000311758373611
Ca74 ns74 0 1e-012
Ca75 ns75 0 1e-012
Ra74 ns74 0 18509.8346023
Ra75 ns75 0 18509.8346023
Ga74 ns74 0 ns75 0 0.000359225868584
Ga75 ns75 0 ns74 0 -0.000359225868584
Ca76 ns76 0 1e-012
Ca77 ns77 0 1e-012
Ra76 ns76 0 26229.09044
Ra77 ns77 0 26229.09044
Ga76 ns76 0 ns77 0 0.000625856614091
Ga77 ns77 0 ns76 0 -0.000625856614091
Ca78 ns78 0 1e-012
Ca79 ns79 0 1e-012
Ra78 ns78 0 21198.3632353
Ra79 ns79 0 21198.3632353
Ga78 ns78 0 ns79 0 0.000707561695434
Ga79 ns79 0 ns78 0 -0.000707561695434
Ca80 ns80 0 1e-012
Ra80 ns80 0 1097.7137108
Ca81 ns81 0 1e-012
Ca82 ns82 0 1e-012
Ra81 ns81 0 12065.1342885
Ra82 ns82 0 12065.1342885
Ga81 ns81 0 ns82 0 0.000975734181656
Ga82 ns82 0 ns81 0 -0.000975734181656
Ca83 ns83 0 1e-012
Ca84 ns84 0 1e-012
Ra83 ns83 0 10052.4151569
Ra84 ns84 0 10052.4151569
Ga83 ns83 0 ns84 0 0.00142143845267
Ga84 ns84 0 ns83 0 -0.00142143845267
Ca85 ns85 0 1e-012
Ca86 ns86 0 1e-012
Ra85 ns85 0 7797.15833261
Ra86 ns86 0 7797.15833261
Ga85 ns85 0 ns86 0 0.00153783976406
Ga86 ns86 0 ns85 0 -0.00153783976406
Ca87 ns87 0 1e-012
Ra87 ns87 0 635.943454195
Ca88 ns88 0 1e-012
Ca89 ns89 0 1e-012
Ra88 ns88 0 6825.30881652
Ra89 ns89 0 6825.30881652
Ga88 ns88 0 ns89 0 0.00167031063461
Ga89 ns89 0 ns88 0 -0.00167031063461
Ca90 ns90 0 1e-012
Ca91 ns91 0 1e-012
Ra90 ns90 0 2489.79400904
Ra91 ns91 0 2489.79400904
Ga90 ns90 0 ns91 0 -0.00216493640525
Ga91 ns91 0 ns90 0 0.00216493640525
Ca92 ns92 0 1e-012
Ca93 ns93 0 1e-012
Ra92 ns92 0 7701.57354894
Ra93 ns93 0 7701.57354894
Ga92 ns92 0 ns93 0 0.00222875618145
Ga93 ns93 0 ns92 0 -0.00222875618145
Ca94 ns94 0 1e-012
Ca95 ns95 0 1e-012
Ra94 ns94 0 6047.44334554
Ra95 ns95 0 6047.44334554
Ga94 ns94 0 ns95 0 0.00239240936814
Ga95 ns95 0 ns94 0 -0.00239240936814
Ca96 ns96 0 1e-012
Ca97 ns97 0 1e-012
Ra96 ns96 0 5770.93672844
Ra97 ns97 0 5770.93672844
Ga96 ns96 0 ns97 0 0.00267448696092
Ga97 ns97 0 ns96 0 -0.00267448696092
Ca98 ns98 0 1e-012
Ca99 ns99 0 1e-012
Ra98 ns98 0 3588.75975171
Ra99 ns99 0 3588.75975171
Ga98 ns98 0 ns99 0 0.00267109105507
Ga99 ns99 0 ns98 0 -0.00267109105507
Ca100 ns100 0 1e-012
Ca101 ns101 0 1e-012
Ra100 ns100 0 5600.3927863
Ra101 ns101 0 5600.3927863
Ga100 ns100 0 ns101 0 0.00300926956986
Ga101 ns101 0 ns100 0 -0.00300926956986
Ca102 ns102 0 1e-012
Ca103 ns103 0 1e-012
Ra102 ns102 0 5561.01408599
Ra103 ns103 0 5561.01408599
Ga102 ns102 0 ns103 0 0.00317541353468
Ga103 ns103 0 ns102 0 -0.00317541353468
Ca104 ns104 0 1e-012
Ca105 ns105 0 1e-012
Ra104 ns104 0 5580.34127395
Ra105 ns105 0 5580.34127395
Ga104 ns104 0 ns105 0 0.00359314992897
Ga105 ns105 0 ns104 0 -0.00359314992897
Ca106 ns106 0 1e-012
Ca107 ns107 0 1e-012
Ra106 ns106 0 3645.03602327
Ra107 ns107 0 3645.03602327
Ga106 ns106 0 ns107 0 -0.00374795619522
Ga107 ns107 0 ns106 0 0.00374795619522
Ca108 ns108 0 1e-012
Ca109 ns109 0 1e-012
Ra108 ns108 0 4287.69921234
Ra109 ns109 0 4287.69921234
Ga108 ns108 0 ns109 0 0.00406097624502
Ga109 ns109 0 ns108 0 -0.00406097624502
Ca110 ns110 0 1e-012
Ca111 ns111 0 1e-012
Ra110 ns110 0 3455.04134993
Ra111 ns111 0 3455.04134993
Ga110 ns110 0 ns111 0 0.00433498082371
Ga111 ns111 0 ns110 0 -0.00433498082371
Ca112 ns112 0 1e-012
Ca113 ns113 0 1e-012
Ra112 ns112 0 3568.17313167
Ra113 ns113 0 3568.17313167
Ga112 ns112 0 ns113 0 0.00476639779804
Ga113 ns113 0 ns112 0 -0.00476639779804
Ca114 ns114 0 1e-012
Ca115 ns115 0 1e-012
Ra114 ns114 0 3284.55801564
Ra115 ns115 0 3284.55801564
Ga114 ns114 0 ns115 0 0.00518740076133
Ga115 ns115 0 ns114 0 -0.00518740076133
Ca116 ns116 0 1e-012
Ca117 ns117 0 1e-012
Ra116 ns116 0 4014.86514635
Ra117 ns117 0 4014.86514635
Ga116 ns116 0 ns117 0 0.00553135046259
Ga117 ns117 0 ns116 0 -0.00553135046259
Ca118 ns118 0 1e-012
Ca119 ns119 0 1e-012
Ra118 ns118 0 3493.94678717
Ra119 ns119 0 3493.94678717
Ga118 ns118 0 ns119 0 0.00609452366223
Ga119 ns119 0 ns118 0 -0.00609452366223
Ca120 ns120 0 1e-012
Ca121 ns121 0 1e-012
Ra120 ns120 0 1246.04951892
Ra121 ns121 0 1246.04951892
Ga120 ns120 0 ns121 0 0.0064190072594
Ga121 ns121 0 ns120 0 -0.0064190072594
Ca122 ns122 0 1e-012
Ra122 ns122 0 151.193377117
Ca123 ns123 0 1e-012
Ra123 ns123 0 54695153.1588
Ca124 ns124 0 1e-012
Ra124 ns124 0 22677856.93
Ca125 ns125 0 1e-012
Ca126 ns126 0 1e-012
Ra125 ns125 0 19509638.3952
Ra126 ns126 0 19509638.3952
Ga125 ns125 0 ns126 0 3.7465981693e-007
Ga126 ns126 0 ns125 0 -3.7465981693e-007
Ca127 ns127 0 1e-012
Ra127 ns127 0 121249.932424
Ca128 ns128 0 1e-012
Ra128 ns128 0 23950.1994779
Ca129 ns129 0 1e-012
Ca130 ns130 0 1e-012
Ra129 ns129 0 138246.69877
Ra130 ns130 0 138246.69877
Ga129 ns129 0 ns130 0 0.000112188134926
Ga130 ns130 0 ns129 0 -0.000112188134926
Ca131 ns131 0 1e-012
Ca132 ns132 0 1e-012
Ra131 ns131 0 74549.2634597
Ra132 ns132 0 74549.2634597
Ga131 ns131 0 ns132 0 0.000199541350737
Ga132 ns132 0 ns131 0 -0.000199541350737
Ca133 ns133 0 1e-012
Ca134 ns134 0 1e-012
Ra133 ns133 0 42208.5046626
Ra134 ns134 0 42208.5046626
Ga133 ns133 0 ns134 0 -0.000311758373611
Ga134 ns134 0 ns133 0 0.000311758373611
Ca135 ns135 0 1e-012
Ca136 ns136 0 1e-012
Ra135 ns135 0 18509.8346023
Ra136 ns136 0 18509.8346023
Ga135 ns135 0 ns136 0 0.000359225868584
Ga136 ns136 0 ns135 0 -0.000359225868584
Ca137 ns137 0 1e-012
Ca138 ns138 0 1e-012
Ra137 ns137 0 26229.09044
Ra138 ns138 0 26229.09044
Ga137 ns137 0 ns138 0 0.000625856614091
Ga138 ns138 0 ns137 0 -0.000625856614091
Ca139 ns139 0 1e-012
Ca140 ns140 0 1e-012
Ra139 ns139 0 21198.3632353
Ra140 ns140 0 21198.3632353
Ga139 ns139 0 ns140 0 0.000707561695434
Ga140 ns140 0 ns139 0 -0.000707561695434
Ca141 ns141 0 1e-012
Ra141 ns141 0 1097.7137108
Ca142 ns142 0 1e-012
Ca143 ns143 0 1e-012
Ra142 ns142 0 12065.1342885
Ra143 ns143 0 12065.1342885
Ga142 ns142 0 ns143 0 0.000975734181656
Ga143 ns143 0 ns142 0 -0.000975734181656
Ca144 ns144 0 1e-012
Ca145 ns145 0 1e-012
Ra144 ns144 0 10052.4151569
Ra145 ns145 0 10052.4151569
Ga144 ns144 0 ns145 0 0.00142143845267
Ga145 ns145 0 ns144 0 -0.00142143845267
Ca146 ns146 0 1e-012
Ca147 ns147 0 1e-012
Ra146 ns146 0 7797.15833261
Ra147 ns147 0 7797.15833261
Ga146 ns146 0 ns147 0 0.00153783976406
Ga147 ns147 0 ns146 0 -0.00153783976406
Ca148 ns148 0 1e-012
Ra148 ns148 0 635.943454195
Ca149 ns149 0 1e-012
Ca150 ns150 0 1e-012
Ra149 ns149 0 6825.30881652
Ra150 ns150 0 6825.30881652
Ga149 ns149 0 ns150 0 0.00167031063461
Ga150 ns150 0 ns149 0 -0.00167031063461
Ca151 ns151 0 1e-012
Ca152 ns152 0 1e-012
Ra151 ns151 0 2489.79400904
Ra152 ns152 0 2489.79400904
Ga151 ns151 0 ns152 0 -0.00216493640525
Ga152 ns152 0 ns151 0 0.00216493640525
Ca153 ns153 0 1e-012
Ca154 ns154 0 1e-012
Ra153 ns153 0 7701.57354894
Ra154 ns154 0 7701.57354894
Ga153 ns153 0 ns154 0 0.00222875618145
Ga154 ns154 0 ns153 0 -0.00222875618145
Ca155 ns155 0 1e-012
Ca156 ns156 0 1e-012
Ra155 ns155 0 6047.44334554
Ra156 ns156 0 6047.44334554
Ga155 ns155 0 ns156 0 0.00239240936814
Ga156 ns156 0 ns155 0 -0.00239240936814
Ca157 ns157 0 1e-012
Ca158 ns158 0 1e-012
Ra157 ns157 0 5770.93672844
Ra158 ns158 0 5770.93672844
Ga157 ns157 0 ns158 0 0.00267448696092
Ga158 ns158 0 ns157 0 -0.00267448696092
Ca159 ns159 0 1e-012
Ca160 ns160 0 1e-012
Ra159 ns159 0 3588.75975171
Ra160 ns160 0 3588.75975171
Ga159 ns159 0 ns160 0 0.00267109105507
Ga160 ns160 0 ns159 0 -0.00267109105507
Ca161 ns161 0 1e-012
Ca162 ns162 0 1e-012
Ra161 ns161 0 5600.3927863
Ra162 ns162 0 5600.3927863
Ga161 ns161 0 ns162 0 0.00300926956986
Ga162 ns162 0 ns161 0 -0.00300926956986
Ca163 ns163 0 1e-012
Ca164 ns164 0 1e-012
Ra163 ns163 0 5561.01408599
Ra164 ns164 0 5561.01408599
Ga163 ns163 0 ns164 0 0.00317541353468
Ga164 ns164 0 ns163 0 -0.00317541353468
Ca165 ns165 0 1e-012
Ca166 ns166 0 1e-012
Ra165 ns165 0 5580.34127395
Ra166 ns166 0 5580.34127395
Ga165 ns165 0 ns166 0 0.00359314992897
Ga166 ns166 0 ns165 0 -0.00359314992897
Ca167 ns167 0 1e-012
Ca168 ns168 0 1e-012
Ra167 ns167 0 3645.03602327
Ra168 ns168 0 3645.03602327
Ga167 ns167 0 ns168 0 -0.00374795619522
Ga168 ns168 0 ns167 0 0.00374795619522
Ca169 ns169 0 1e-012
Ca170 ns170 0 1e-012
Ra169 ns169 0 4287.69921234
Ra170 ns170 0 4287.69921234
Ga169 ns169 0 ns170 0 0.00406097624502
Ga170 ns170 0 ns169 0 -0.00406097624502
Ca171 ns171 0 1e-012
Ca172 ns172 0 1e-012
Ra171 ns171 0 3455.04134993
Ra172 ns172 0 3455.04134993
Ga171 ns171 0 ns172 0 0.00433498082371
Ga172 ns172 0 ns171 0 -0.00433498082371
Ca173 ns173 0 1e-012
Ca174 ns174 0 1e-012
Ra173 ns173 0 3568.17313167
Ra174 ns174 0 3568.17313167
Ga173 ns173 0 ns174 0 0.00476639779804
Ga174 ns174 0 ns173 0 -0.00476639779804
Ca175 ns175 0 1e-012
Ca176 ns176 0 1e-012
Ra175 ns175 0 3284.55801564
Ra176 ns176 0 3284.55801564
Ga175 ns175 0 ns176 0 0.00518740076133
Ga176 ns176 0 ns175 0 -0.00518740076133
Ca177 ns177 0 1e-012
Ca178 ns178 0 1e-012
Ra177 ns177 0 4014.86514635
Ra178 ns178 0 4014.86514635
Ga177 ns177 0 ns178 0 0.00553135046259
Ga178 ns178 0 ns177 0 -0.00553135046259
Ca179 ns179 0 1e-012
Ca180 ns180 0 1e-012
Ra179 ns179 0 3493.94678717
Ra180 ns180 0 3493.94678717
Ga179 ns179 0 ns180 0 0.00609452366223
Ga180 ns180 0 ns179 0 -0.00609452366223
Ca181 ns181 0 1e-012
Ca182 ns182 0 1e-012
Ra181 ns181 0 1246.04951892
Ra182 ns182 0 1246.04951892
Ga181 ns181 0 ns182 0 0.0064190072594
Ga182 ns182 0 ns181 0 -0.0064190072594
Ca183 ns183 0 1e-012
Ra183 ns183 0 151.193377117
Ca184 ns184 0 1e-012
Ra184 ns184 0 54695153.1588
Ca185 ns185 0 1e-012
Ra185 ns185 0 22677856.93
Ca186 ns186 0 1e-012
Ca187 ns187 0 1e-012
Ra186 ns186 0 19509638.3952
Ra187 ns187 0 19509638.3952
Ga186 ns186 0 ns187 0 3.7465981693e-007
Ga187 ns187 0 ns186 0 -3.7465981693e-007
Ca188 ns188 0 1e-012
Ra188 ns188 0 121249.932424
Ca189 ns189 0 1e-012
Ra189 ns189 0 23950.1994779
Ca190 ns190 0 1e-012
Ca191 ns191 0 1e-012
Ra190 ns190 0 138246.69877
Ra191 ns191 0 138246.69877
Ga190 ns190 0 ns191 0 0.000112188134926
Ga191 ns191 0 ns190 0 -0.000112188134926
Ca192 ns192 0 1e-012
Ca193 ns193 0 1e-012
Ra192 ns192 0 74549.2634597
Ra193 ns193 0 74549.2634597
Ga192 ns192 0 ns193 0 0.000199541350737
Ga193 ns193 0 ns192 0 -0.000199541350737
Ca194 ns194 0 1e-012
Ca195 ns195 0 1e-012
Ra194 ns194 0 42208.5046626
Ra195 ns195 0 42208.5046626
Ga194 ns194 0 ns195 0 -0.000311758373611
Ga195 ns195 0 ns194 0 0.000311758373611
Ca196 ns196 0 1e-012
Ca197 ns197 0 1e-012
Ra196 ns196 0 18509.8346023
Ra197 ns197 0 18509.8346023
Ga196 ns196 0 ns197 0 0.000359225868584
Ga197 ns197 0 ns196 0 -0.000359225868584
Ca198 ns198 0 1e-012
Ca199 ns199 0 1e-012
Ra198 ns198 0 26229.09044
Ra199 ns199 0 26229.09044
Ga198 ns198 0 ns199 0 0.000625856614091
Ga199 ns199 0 ns198 0 -0.000625856614091
Ca200 ns200 0 1e-012
Ca201 ns201 0 1e-012
Ra200 ns200 0 21198.3632353
Ra201 ns201 0 21198.3632353
Ga200 ns200 0 ns201 0 0.000707561695434
Ga201 ns201 0 ns200 0 -0.000707561695434
Ca202 ns202 0 1e-012
Ra202 ns202 0 1097.7137108
Ca203 ns203 0 1e-012
Ca204 ns204 0 1e-012
Ra203 ns203 0 12065.1342885
Ra204 ns204 0 12065.1342885
Ga203 ns203 0 ns204 0 0.000975734181656
Ga204 ns204 0 ns203 0 -0.000975734181656
Ca205 ns205 0 1e-012
Ca206 ns206 0 1e-012
Ra205 ns205 0 10052.4151569
Ra206 ns206 0 10052.4151569
Ga205 ns205 0 ns206 0 0.00142143845267
Ga206 ns206 0 ns205 0 -0.00142143845267
Ca207 ns207 0 1e-012
Ca208 ns208 0 1e-012
Ra207 ns207 0 7797.15833261
Ra208 ns208 0 7797.15833261
Ga207 ns207 0 ns208 0 0.00153783976406
Ga208 ns208 0 ns207 0 -0.00153783976406
Ca209 ns209 0 1e-012
Ra209 ns209 0 635.943454195
Ca210 ns210 0 1e-012
Ca211 ns211 0 1e-012
Ra210 ns210 0 6825.30881652
Ra211 ns211 0 6825.30881652
Ga210 ns210 0 ns211 0 0.00167031063461
Ga211 ns211 0 ns210 0 -0.00167031063461
Ca212 ns212 0 1e-012
Ca213 ns213 0 1e-012
Ra212 ns212 0 2489.79400904
Ra213 ns213 0 2489.79400904
Ga212 ns212 0 ns213 0 -0.00216493640525
Ga213 ns213 0 ns212 0 0.00216493640525
Ca214 ns214 0 1e-012
Ca215 ns215 0 1e-012
Ra214 ns214 0 7701.57354894
Ra215 ns215 0 7701.57354894
Ga214 ns214 0 ns215 0 0.00222875618145
Ga215 ns215 0 ns214 0 -0.00222875618145
Ca216 ns216 0 1e-012
Ca217 ns217 0 1e-012
Ra216 ns216 0 6047.44334554
Ra217 ns217 0 6047.44334554
Ga216 ns216 0 ns217 0 0.00239240936814
Ga217 ns217 0 ns216 0 -0.00239240936814
Ca218 ns218 0 1e-012
Ca219 ns219 0 1e-012
Ra218 ns218 0 5770.93672844
Ra219 ns219 0 5770.93672844
Ga218 ns218 0 ns219 0 0.00267448696092
Ga219 ns219 0 ns218 0 -0.00267448696092
Ca220 ns220 0 1e-012
Ca221 ns221 0 1e-012
Ra220 ns220 0 3588.75975171
Ra221 ns221 0 3588.75975171
Ga220 ns220 0 ns221 0 0.00267109105507
Ga221 ns221 0 ns220 0 -0.00267109105507
Ca222 ns222 0 1e-012
Ca223 ns223 0 1e-012
Ra222 ns222 0 5600.3927863
Ra223 ns223 0 5600.3927863
Ga222 ns222 0 ns223 0 0.00300926956986
Ga223 ns223 0 ns222 0 -0.00300926956986
Ca224 ns224 0 1e-012
Ca225 ns225 0 1e-012
Ra224 ns224 0 5561.01408599
Ra225 ns225 0 5561.01408599
Ga224 ns224 0 ns225 0 0.00317541353468
Ga225 ns225 0 ns224 0 -0.00317541353468
Ca226 ns226 0 1e-012
Ca227 ns227 0 1e-012
Ra226 ns226 0 5580.34127395
Ra227 ns227 0 5580.34127395
Ga226 ns226 0 ns227 0 0.00359314992897
Ga227 ns227 0 ns226 0 -0.00359314992897
Ca228 ns228 0 1e-012
Ca229 ns229 0 1e-012
Ra228 ns228 0 3645.03602327
Ra229 ns229 0 3645.03602327
Ga228 ns228 0 ns229 0 -0.00374795619522
Ga229 ns229 0 ns228 0 0.00374795619522
Ca230 ns230 0 1e-012
Ca231 ns231 0 1e-012
Ra230 ns230 0 4287.69921234
Ra231 ns231 0 4287.69921234
Ga230 ns230 0 ns231 0 0.00406097624502
Ga231 ns231 0 ns230 0 -0.00406097624502
Ca232 ns232 0 1e-012
Ca233 ns233 0 1e-012
Ra232 ns232 0 3455.04134993
Ra233 ns233 0 3455.04134993
Ga232 ns232 0 ns233 0 0.00433498082371
Ga233 ns233 0 ns232 0 -0.00433498082371
Ca234 ns234 0 1e-012
Ca235 ns235 0 1e-012
Ra234 ns234 0 3568.17313167
Ra235 ns235 0 3568.17313167
Ga234 ns234 0 ns235 0 0.00476639779804
Ga235 ns235 0 ns234 0 -0.00476639779804
Ca236 ns236 0 1e-012
Ca237 ns237 0 1e-012
Ra236 ns236 0 3284.55801564
Ra237 ns237 0 3284.55801564
Ga236 ns236 0 ns237 0 0.00518740076133
Ga237 ns237 0 ns236 0 -0.00518740076133
Ca238 ns238 0 1e-012
Ca239 ns239 0 1e-012
Ra238 ns238 0 4014.86514635
Ra239 ns239 0 4014.86514635
Ga238 ns238 0 ns239 0 0.00553135046259
Ga239 ns239 0 ns238 0 -0.00553135046259
Ca240 ns240 0 1e-012
Ca241 ns241 0 1e-012
Ra240 ns240 0 3493.94678717
Ra241 ns241 0 3493.94678717
Ga240 ns240 0 ns241 0 0.00609452366223
Ga241 ns241 0 ns240 0 -0.00609452366223
Ca242 ns242 0 1e-012
Ca243 ns243 0 1e-012
Ra242 ns242 0 1246.04951892
Ra243 ns243 0 1246.04951892
Ga242 ns242 0 ns243 0 0.0064190072594
Ga243 ns243 0 ns242 0 -0.0064190072594
Ca244 ns244 0 1e-012
Ra244 ns244 0 151.193377117

Gb1_1 ns1 0 ni1 0 1.82831556774e-008
Gb2_1 ns2 0 ni1 0 4.40958774495e-008
Gb3_1 ns3 0 ni1 0 3.81672180801e-007
Gb5_1 ns5 0 ni1 0 8.24742727695e-006
Gb6_1 ns6 0 ni1 0 4.17533056843e-005
Gb7_1 ns7 0 ni1 0 0.000112654518808
Gb9_1 ns9 0 ni1 0 0.000200443088751
Gb11_1 ns11 0 ni1 0 0.000313558827237
Gb13_1 ns13 0 ni1 0 0.000367350942495
Gb15_1 ns15 0 ni1 0 0.000628179129974
Gb17_1 ns17 0 ni1 0 0.000710706770583
Gb19_1 ns19 0 ni1 0 0.000910984339688
Gb20_1 ns20 0 ni1 0 0.000982774692317
Gb22_1 ns22 0 ni1 0 0.001428400406
Gb24_1 ns24 0 ni1 0 0.00154853563631
Gb26_1 ns26 0 ni1 0 0.00157246684969
Gb27_1 ns27 0 ni1 0 0.00168316226247
Gb29_1 ns29 0 ni1 0 0.00223944871419
Gb31_1 ns31 0 ni1 0 0.00223632065145
Gb33_1 ns33 0 ni1 0 0.0024038387012
Gb35_1 ns35 0 ni1 0 0.00268571404278
Gb37_1 ns37 0 ni1 0 0.00270015954931
Gb39_1 ns39 0 ni1 0 0.00301986459354
Gb41_1 ns41 0 ni1 0 0.00318559690924
Gb43_1 ns43 0 ni1 0 0.00360208716323
Gb45_1 ns45 0 ni1 0 0.00376803795854
Gb47_1 ns47 0 ni1 0 0.00407437057297
Gb49_1 ns49 0 ni1 0 0.00435430523715
Gb51_1 ns51 0 ni1 0 0.00478287630567
Gb53_1 ns53 0 ni1 0 0.00520526959984
Gb55_1 ns55 0 ni1 0 0.00554256617589
Gb57_1 ns57 0 ni1 0 0.00610796454087
Gb59_1 ns59 0 ni1 0 0.00651934435589
Gb61_1 ns61 0 ni1 0 0.00661404632312
Gb62_2 ns62 0 ni2 0 1.82831556774e-008
Gb63_2 ns63 0 ni2 0 4.40958774495e-008
Gb64_2 ns64 0 ni2 0 3.81672180801e-007
Gb66_2 ns66 0 ni2 0 8.24742727695e-006
Gb67_2 ns67 0 ni2 0 4.17533056843e-005
Gb68_2 ns68 0 ni2 0 0.000112654518808
Gb70_2 ns70 0 ni2 0 0.000200443088751
Gb72_2 ns72 0 ni2 0 0.000313558827237
Gb74_2 ns74 0 ni2 0 0.000367350942495
Gb76_2 ns76 0 ni2 0 0.000628179129974
Gb78_2 ns78 0 ni2 0 0.000710706770583
Gb80_2 ns80 0 ni2 0 0.000910984339688
Gb81_2 ns81 0 ni2 0 0.000982774692317
Gb83_2 ns83 0 ni2 0 0.001428400406
Gb85_2 ns85 0 ni2 0 0.00154853563631
Gb87_2 ns87 0 ni2 0 0.00157246684969
Gb88_2 ns88 0 ni2 0 0.00168316226247
Gb90_2 ns90 0 ni2 0 0.00223944871419
Gb92_2 ns92 0 ni2 0 0.00223632065145
Gb94_2 ns94 0 ni2 0 0.0024038387012
Gb96_2 ns96 0 ni2 0 0.00268571404278
Gb98_2 ns98 0 ni2 0 0.00270015954931
Gb100_2 ns100 0 ni2 0 0.00301986459354
Gb102_2 ns102 0 ni2 0 0.00318559690924
Gb104_2 ns104 0 ni2 0 0.00360208716323
Gb106_2 ns106 0 ni2 0 0.00376803795854
Gb108_2 ns108 0 ni2 0 0.00407437057297
Gb110_2 ns110 0 ni2 0 0.00435430523715
Gb112_2 ns112 0 ni2 0 0.00478287630567
Gb114_2 ns114 0 ni2 0 0.00520526959984
Gb116_2 ns116 0 ni2 0 0.00554256617589
Gb118_2 ns118 0 ni2 0 0.00610796454087
Gb120_2 ns120 0 ni2 0 0.00651934435589
Gb122_2 ns122 0 ni2 0 0.00661404632312
Gb123_3 ns123 0 ni3 0 1.82831556774e-008
Gb124_3 ns124 0 ni3 0 4.40958774495e-008
Gb125_3 ns125 0 ni3 0 3.81672180801e-007
Gb127_3 ns127 0 ni3 0 8.24742727695e-006
Gb128_3 ns128 0 ni3 0 4.17533056843e-005
Gb129_3 ns129 0 ni3 0 0.000112654518808
Gb131_3 ns131 0 ni3 0 0.000200443088751
Gb133_3 ns133 0 ni3 0 0.000313558827237
Gb135_3 ns135 0 ni3 0 0.000367350942495
Gb137_3 ns137 0 ni3 0 0.000628179129974
Gb139_3 ns139 0 ni3 0 0.000710706770583
Gb141_3 ns141 0 ni3 0 0.000910984339688
Gb142_3 ns142 0 ni3 0 0.000982774692317
Gb144_3 ns144 0 ni3 0 0.001428400406
Gb146_3 ns146 0 ni3 0 0.00154853563631
Gb148_3 ns148 0 ni3 0 0.00157246684969
Gb149_3 ns149 0 ni3 0 0.00168316226247
Gb151_3 ns151 0 ni3 0 0.00223944871419
Gb153_3 ns153 0 ni3 0 0.00223632065145
Gb155_3 ns155 0 ni3 0 0.0024038387012
Gb157_3 ns157 0 ni3 0 0.00268571404278
Gb159_3 ns159 0 ni3 0 0.00270015954931
Gb161_3 ns161 0 ni3 0 0.00301986459354
Gb163_3 ns163 0 ni3 0 0.00318559690924
Gb165_3 ns165 0 ni3 0 0.00360208716323
Gb167_3 ns167 0 ni3 0 0.00376803795854
Gb169_3 ns169 0 ni3 0 0.00407437057297
Gb171_3 ns171 0 ni3 0 0.00435430523715
Gb173_3 ns173 0 ni3 0 0.00478287630567
Gb175_3 ns175 0 ni3 0 0.00520526959984
Gb177_3 ns177 0 ni3 0 0.00554256617589
Gb179_3 ns179 0 ni3 0 0.00610796454087
Gb181_3 ns181 0 ni3 0 0.00651934435589
Gb183_3 ns183 0 ni3 0 0.00661404632312
Gb184_4 ns184 0 ni4 0 1.82831556774e-008
Gb185_4 ns185 0 ni4 0 4.40958774495e-008
Gb186_4 ns186 0 ni4 0 3.81672180801e-007
Gb188_4 ns188 0 ni4 0 8.24742727695e-006
Gb189_4 ns189 0 ni4 0 4.17533056843e-005
Gb190_4 ns190 0 ni4 0 0.000112654518808
Gb192_4 ns192 0 ni4 0 0.000200443088751
Gb194_4 ns194 0 ni4 0 0.000313558827237
Gb196_4 ns196 0 ni4 0 0.000367350942495
Gb198_4 ns198 0 ni4 0 0.000628179129974
Gb200_4 ns200 0 ni4 0 0.000710706770583
Gb202_4 ns202 0 ni4 0 0.000910984339688
Gb203_4 ns203 0 ni4 0 0.000982774692317
Gb205_4 ns205 0 ni4 0 0.001428400406
Gb207_4 ns207 0 ni4 0 0.00154853563631
Gb209_4 ns209 0 ni4 0 0.00157246684969
Gb210_4 ns210 0 ni4 0 0.00168316226247
Gb212_4 ns212 0 ni4 0 0.00223944871419
Gb214_4 ns214 0 ni4 0 0.00223632065145
Gb216_4 ns216 0 ni4 0 0.0024038387012
Gb218_4 ns218 0 ni4 0 0.00268571404278
Gb220_4 ns220 0 ni4 0 0.00270015954931
Gb222_4 ns222 0 ni4 0 0.00301986459354
Gb224_4 ns224 0 ni4 0 0.00318559690924
Gb226_4 ns226 0 ni4 0 0.00360208716323
Gb228_4 ns228 0 ni4 0 0.00376803795854
Gb230_4 ns230 0 ni4 0 0.00407437057297
Gb232_4 ns232 0 ni4 0 0.00435430523715
Gb234_4 ns234 0 ni4 0 0.00478287630567
Gb236_4 ns236 0 ni4 0 0.00520526959984
Gb238_4 ns238 0 ni4 0 0.00554256617589
Gb240_4 ns240 0 ni4 0 0.00610796454087
Gb242_4 ns242 0 ni4 0 0.00651934435589
Gb244_4 ns244 0 ni4 0 0.00661404632312

Gc1_1 0 n2 ns1 0 0.00257883305566
Gc1_2 0 n2 ns2 0 -0.0106085705153
Gc1_3 0 n2 ns3 0 -0.00122731978929
Gc1_4 0 n2 ns4 0 4.6869725651e-005
Gc1_5 0 n2 ns5 0 3.17289542691e-005
Gc1_6 0 n2 ns6 0 1.92608349738e-005
Gc1_7 0 n2 ns7 0 -1.47385161574e-006
Gc1_8 0 n2 ns8 0 1.93483304806e-006
Gc1_9 0 n2 ns9 0 8.91713092133e-005
Gc1_10 0 n2 ns10 0 2.17446223128e-005
Gc1_11 0 n2 ns11 0 0.000707886575776
Gc1_12 0 n2 ns12 0 -7.51480998036e-005
Gc1_13 0 n2 ns13 0 8.55630566119e-006
Gc1_14 0 n2 ns14 0 1.93359344634e-005
Gc1_15 0 n2 ns15 0 7.65790777304e-006
Gc1_16 0 n2 ns16 0 -6.13901100805e-006
Gc1_17 0 n2 ns17 0 3.47160981238e-005
Gc1_18 0 n2 ns18 0 4.94349186895e-005
Gc1_19 0 n2 ns19 0 0.00992692583435
Gc1_20 0 n2 ns20 0 0.000678119881145
Gc1_21 0 n2 ns21 0 0.000556184585588
Gc1_22 0 n2 ns22 0 0.00025596361245
Gc1_23 0 n2 ns23 0 0.000367755630832
Gc1_24 0 n2 ns24 0 0.000239079538684
Gc1_25 0 n2 ns25 0 0.000576904087639
Gc1_26 0 n2 ns26 0 0.01701703174
Gc1_27 0 n2 ns27 0 0.00098100356482
Gc1_28 0 n2 ns28 0 0.000908903147689
Gc1_29 0 n2 ns29 0 0.00649903305149
Gc1_30 0 n2 ns30 0 -0.00174688840506
Gc1_31 0 n2 ns31 0 2.55667562812e-005
Gc1_32 0 n2 ns32 0 6.70170254465e-005
Gc1_33 0 n2 ns33 0 -4.9029556638e-006
Gc1_34 0 n2 ns34 0 9.18585271335e-005
Gc1_35 0 n2 ns35 0 -0.000499207609238
Gc1_36 0 n2 ns36 0 -7.91204755168e-005
Gc1_37 0 n2 ns37 0 0.00235766238725
Gc1_38 0 n2 ns38 0 -0.00111673183757
Gc1_39 0 n2 ns39 0 -3.11226872032e-005
Gc1_40 0 n2 ns40 0 4.92844535535e-005
Gc1_41 0 n2 ns41 0 4.2383147334e-005
Gc1_42 0 n2 ns42 0 7.18364568972e-005
Gc1_43 0 n2 ns43 0 1.41524200427e-005
Gc1_44 0 n2 ns44 0 -0.000128941494091
Gc1_45 0 n2 ns45 0 0.000199677704668
Gc1_46 0 n2 ns46 0 -0.000297237036764
Gc1_47 0 n2 ns47 0 0.000104316788365
Gc1_48 0 n2 ns48 0 0.000179722746506
Gc1_49 0 n2 ns49 0 0.000479085907682
Gc1_50 0 n2 ns50 0 -5.78224512251e-005
Gc1_51 0 n2 ns51 0 -6.3603131148e-005
Gc1_52 0 n2 ns52 0 0.000174474045755
Gc1_53 0 n2 ns53 0 -9.55400107035e-005
Gc1_54 0 n2 ns54 0 9.17659935896e-005
Gc1_55 0 n2 ns55 0 5.22389181334e-005
Gc1_56 0 n2 ns56 0 0.000143446362205
Gc1_57 0 n2 ns57 0 5.94517765693e-005
Gc1_58 0 n2 ns58 0 5.56785882712e-006
Gc1_59 0 n2 ns59 0 0.000715388663005
Gc1_60 0 n2 ns60 0 0.000254348451241
Gc1_61 0 n2 ns61 0 -0.0373893541633
Gc1_62 0 n2 ns62 0 -0.0009078541202