**************************************************
* Manufacturer:           Wurth Elektronik 
* Kinds:                  WE-LAN 10G Transformer 10Gbit Base-T 
* Matchcode:              WE-LAN 10G
* Library Type:           LTspice
* Version:                rev22a
* Created/modified by:    Ella      
* Date and Time:          2022-05-23
* Team:                   eiSos EDA Service  
* Contact:                libraries@we-online.com
**************************************************
* Copyright(C) 2022 Würth Elektronik eiSos GmbH & Co. KG
* All Rights Reserved.
**************************************************
* Disclaimer: While Würth Elektronik eiSos has made every reasonable effort to ensure the accuracy
* of the simulation models provided, Würth Elektronik eiSos does not guarantee the exemption of error on
* the simulation models, nor does Würth Elektronik eiSos guarantee that the simulation model is current.
* Würth Elektronik eiSos reserves the right to make any adjustments at any time without notice.
* Würth Elektronik eiSos expressly disclaims all implied warranties regarding this simulation model.
**************************************************
***********************************************************************************
********************************749050010A*****************************************
***********************************************************************************
.subckt 749050010A 2 1 3 4 6 5
Vam1 1 n2 dc 0
Rport1 n2 0 50
Vam2 2 n4 dc 0
Rport2 n4 0 50
Vam3 3 n6 dc 0
Rport3 n6 0 50
Vam4 4 n8 dc 0
Rport4 n8 0 50
Vam5 5 n10 dc 0
Rport5 n10 0 50
Vam6 6 n12 dc 0
Rport6 n12 0 50

Fi1 0 ni1 Vam1 50
Gi1 0 ni1 1 0 1
Rt1 ni1 0 1
Fi2 0 ni2 Vam2 50
Gi2 0 ni2 2 0 1
Rt2 ni2 0 1
Fi3 0 ni3 Vam3 50
Gi3 0 ni3 3 0 1
Rt3 ni3 0 1
Fi4 0 ni4 Vam4 50
Gi4 0 ni4 4 0 1
Rt4 ni4 0 1
Fi5 0 ni5 Vam5 50
Gi5 0 ni5 5 0 1
Rt5 ni5 0 1
Fi6 0 ni6 Vam6 50
Gi6 0 ni6 6 0 1
Rt6 ni6 0 1

Ca1 ns1 0 1e-012
Ca2 ns2 0 1e-012
Ra1 ns1 0 1830201.69039
Ra2 ns2 0 1830201.69039
Ga1 ns1 0 ns2 0 -3.29122320222e-007
Ga2 ns2 0 ns1 0 3.29122320222e-007
Ca3 ns3 0 1e-012
Ra3 ns3 0 341822.523256
Ca4 ns4 0 1e-012
Ca5 ns5 0 1e-012
Ra4 ns4 0 515153.525171
Ra5 ns5 0 515153.525171
Ga4 ns4 0 ns5 0 -5.48643472298e-006
Ga5 ns5 0 ns4 0 5.48643472298e-006
Ca6 ns6 0 1e-012
Ca7 ns7 0 1e-012
Ra6 ns6 0 18212965.6651
Ra7 ns7 0 18212965.6651
Ga6 ns6 0 ns7 0 -6.2864857606e-006
Ga7 ns7 0 ns6 0 6.2864857606e-006
Ca8 ns8 0 1e-012
Ra8 ns8 0 44320.6213312
Ca9 ns9 0 1e-012
Ra9 ns9 0 6262.00590243
Ca10 ns10 0 1e-012
Ra10 ns10 0 412.737346017
Ca11 ns11 0 1e-012
Ca12 ns12 0 1e-012
Ra11 ns11 0 1741.14091583
Ra12 ns12 0 1741.14091583
Ga11 ns11 0 ns12 0 -0.00262766053452
Ga12 ns12 0 ns11 0 0.00262766053452
Ca13 ns13 0 1e-012
Ca14 ns14 0 1e-012
Ra13 ns13 0 439.377055405
Ra14 ns14 0 439.377055405
Ga13 ns13 0 ns14 0 -0.00232077541558
Ga14 ns14 0 ns13 0 0.00232077541558
Ca15 ns15 0 1e-012
Ca16 ns16 0 1e-012
Ra15 ns15 0 362.052593974
Ra16 ns16 0 362.052593974
Ga15 ns15 0 ns16 0 -0.00540121243564
Ga16 ns16 0 ns15 0 0.00540121243564
Ca17 ns17 0 1e-012
Ca18 ns18 0 1e-012
Ra17 ns17 0 1649.54420093
Ra18 ns18 0 1649.54420093
Ga17 ns17 0 ns18 0 -0.00657593091571
Ga18 ns18 0 ns17 0 0.00657593091571
Ca19 ns19 0 1e-012
Ca20 ns20 0 1e-012
Ra19 ns19 0 341.156084699
Ra20 ns20 0 341.156084699
Ga19 ns19 0 ns20 0 -0.00796944107288
Ga20 ns20 0 ns19 0 0.00796944107288
Ca21 ns21 0 1e-012
Ca22 ns22 0 1e-012
Ra21 ns21 0 516.475321808
Ra22 ns22 0 516.475321808
Ga21 ns21 0 ns22 0 -0.0102365217124
Ga22 ns22 0 ns21 0 0.0102365217124
Ca23 ns23 0 1e-012
Ca24 ns24 0 1e-012
Ra23 ns23 0 820.34827673
Ra24 ns24 0 820.34827673
Ga23 ns23 0 ns24 0 -0.0119223617999
Ga24 ns24 0 ns23 0 0.0119223617999
Ca25 ns25 0 1e-012
Ca26 ns26 0 1e-012
Ra25 ns25 0 1830201.69039
Ra26 ns26 0 1830201.69039
Ga25 ns25 0 ns26 0 -3.29122320222e-007
Ga26 ns26 0 ns25 0 3.29122320222e-007
Ca27 ns27 0 1e-012
Ra27 ns27 0 341822.523256
Ca28 ns28 0 1e-012
Ca29 ns29 0 1e-012
Ra28 ns28 0 515153.525171
Ra29 ns29 0 515153.525171
Ga28 ns28 0 ns29 0 -5.48643472298e-006
Ga29 ns29 0 ns28 0 5.48643472298e-006
Ca30 ns30 0 1e-012
Ca31 ns31 0 1e-012
Ra30 ns30 0 18212965.6651
Ra31 ns31 0 18212965.6651
Ga30 ns30 0 ns31 0 -6.2864857606e-006
Ga31 ns31 0 ns30 0 6.2864857606e-006
Ca32 ns32 0 1e-012
Ra32 ns32 0 44320.6213312
Ca33 ns33 0 1e-012
Ra33 ns33 0 6262.00590243
Ca34 ns34 0 1e-012
Ra34 ns34 0 412.737346017
Ca35 ns35 0 1e-012
Ca36 ns36 0 1e-012
Ra35 ns35 0 1741.14091583
Ra36 ns36 0 1741.14091583
Ga35 ns35 0 ns36 0 -0.00262766053452
Ga36 ns36 0 ns35 0 0.00262766053452
Ca37 ns37 0 1e-012
Ca38 ns38 0 1e-012
Ra37 ns37 0 439.377055405
Ra38 ns38 0 439.377055405
Ga37 ns37 0 ns38 0 -0.00232077541558
Ga38 ns38 0 ns37 0 0.00232077541558
Ca39 ns39 0 1e-012
Ca40 ns40 0 1e-012
Ra39 ns39 0 362.052593974
Ra40 ns40 0 362.052593974
Ga39 ns39 0 ns40 0 -0.00540121243564
Ga40 ns40 0 ns39 0 0.00540121243564
Ca41 ns41 0 1e-012
Ca42 ns42 0 1e-012
Ra41 ns41 0 1649.54420093
Ra42 ns42 0 1649.54420093
Ga41 ns41 0 ns42 0 -0.00657593091571
Ga42 ns42 0 ns41 0 0.00657593091571
Ca43 ns43 0 1e-012
Ca44 ns44 0 1e-012
Ra43 ns43 0 341.156084699
Ra44 ns44 0 341.156084699
Ga43 ns43 0 ns44 0 -0.00796944107288
Ga44 ns44 0 ns43 0 0.00796944107288
Ca45 ns45 0 1e-012
Ca46 ns46 0 1e-012
Ra45 ns45 0 516.475321808
Ra46 ns46 0 516.475321808
Ga45 ns45 0 ns46 0 -0.0102365217124
Ga46 ns46 0 ns45 0 0.0102365217124
Ca47 ns47 0 1e-012
Ca48 ns48 0 1e-012
Ra47 ns47 0 820.34827673
Ra48 ns48 0 820.34827673
Ga47 ns47 0 ns48 0 -0.0119223617999
Ga48 ns48 0 ns47 0 0.0119223617999
Ca49 ns49 0 1e-012
Ca50 ns50 0 1e-012
Ra49 ns49 0 1830201.69039
Ra50 ns50 0 1830201.69039
Ga49 ns49 0 ns50 0 -3.29122320222e-007
Ga50 ns50 0 ns49 0 3.29122320222e-007
Ca51 ns51 0 1e-012
Ra51 ns51 0 341822.523256
Ca52 ns52 0 1e-012
Ca53 ns53 0 1e-012
Ra52 ns52 0 515153.525171
Ra53 ns53 0 515153.525171
Ga52 ns52 0 ns53 0 -5.48643472298e-006
Ga53 ns53 0 ns52 0 5.48643472298e-006
Ca54 ns54 0 1e-012
Ca55 ns55 0 1e-012
Ra54 ns54 0 18212965.6651
Ra55 ns55 0 18212965.6651
Ga54 ns54 0 ns55 0 -6.2864857606e-006
Ga55 ns55 0 ns54 0 6.2864857606e-006
Ca56 ns56 0 1e-012
Ra56 ns56 0 44320.6213312
Ca57 ns57 0 1e-012
Ra57 ns57 0 6262.00590243
Ca58 ns58 0 1e-012
Ra58 ns58 0 412.737346017
Ca59 ns59 0 1e-012
Ca60 ns60 0 1e-012
Ra59 ns59 0 1741.14091583
Ra60 ns60 0 1741.14091583
Ga59 ns59 0 ns60 0 -0.00262766053452
Ga60 ns60 0 ns59 0 0.00262766053452
Ca61 ns61 0 1e-012
Ca62 ns62 0 1e-012
Ra61 ns61 0 439.377055405
Ra62 ns62 0 439.377055405
Ga61 ns61 0 ns62 0 -0.00232077541558
Ga62 ns62 0 ns61 0 0.00232077541558
Ca63 ns63 0 1e-012
Ca64 ns64 0 1e-012
Ra63 ns63 0 362.052593974
Ra64 ns64 0 362.052593974
Ga63 ns63 0 ns64 0 -0.00540121243564
Ga64 ns64 0 ns63 0 0.00540121243564
Ca65 ns65 0 1e-012
Ca66 ns66 0 1e-012
Ra65 ns65 0 1649.54420093
Ra66 ns66 0 1649.54420093
Ga65 ns65 0 ns66 0 -0.00657593091571
Ga66 ns66 0 ns65 0 0.00657593091571
Ca67 ns67 0 1e-012
Ca68 ns68 0 1e-012
Ra67 ns67 0 341.156084699
Ra68 ns68 0 341.156084699
Ga67 ns67 0 ns68 0 -0.00796944107288
Ga68 ns68 0 ns67 0 0.00796944107288
Ca69 ns69 0 1e-012
Ca70 ns70 0 1e-012
Ra69 ns69 0 516.475321808
Ra70 ns70 0 516.475321808
Ga69 ns69 0 ns70 0 -0.0102365217124
Ga70 ns70 0 ns69 0 0.0102365217124
Ca71 ns71 0 1e-012
Ca72 ns72 0 1e-012
Ra71 ns71 0 820.34827673
Ra72 ns72 0 820.34827673
Ga71 ns71 0 ns72 0 -0.0119223617999
Ga72 ns72 0 ns71 0 0.0119223617999
Ca73 ns73 0 1e-012
Ca74 ns74 0 1e-012
Ra73 ns73 0 1830201.69039
Ra74 ns74 0 1830201.69039
Ga73 ns73 0 ns74 0 -3.29122320222e-007
Ga74 ns74 0 ns73 0 3.29122320222e-007
Ca75 ns75 0 1e-012
Ra75 ns75 0 341822.523256
Ca76 ns76 0 1e-012
Ca77 ns77 0 1e-012
Ra76 ns76 0 515153.525171
Ra77 ns77 0 515153.525171
Ga76 ns76 0 ns77 0 -5.48643472298e-006
Ga77 ns77 0 ns76 0 5.48643472298e-006
Ca78 ns78 0 1e-012
Ca79 ns79 0 1e-012
Ra78 ns78 0 18212965.6651
Ra79 ns79 0 18212965.6651
Ga78 ns78 0 ns79 0 -6.2864857606e-006
Ga79 ns79 0 ns78 0 6.2864857606e-006
Ca80 ns80 0 1e-012
Ra80 ns80 0 44320.6213312
Ca81 ns81 0 1e-012
Ra81 ns81 0 6262.00590243
Ca82 ns82 0 1e-012
Ra82 ns82 0 412.737346017
Ca83 ns83 0 1e-012
Ca84 ns84 0 1e-012
Ra83 ns83 0 1741.14091583
Ra84 ns84 0 1741.14091583
Ga83 ns83 0 ns84 0 -0.00262766053452
Ga84 ns84 0 ns83 0 0.00262766053452
Ca85 ns85 0 1e-012
Ca86 ns86 0 1e-012
Ra85 ns85 0 439.377055405
Ra86 ns86 0 439.377055405
Ga85 ns85 0 ns86 0 -0.00232077541558
Ga86 ns86 0 ns85 0 0.00232077541558
Ca87 ns87 0 1e-012
Ca88 ns88 0 1e-012
Ra87 ns87 0 362.052593974
Ra88 ns88 0 362.052593974
Ga87 ns87 0 ns88 0 -0.00540121243564
Ga88 ns88 0 ns87 0 0.00540121243564
Ca89 ns89 0 1e-012
Ca90 ns90 0 1e-012
Ra89 ns89 0 1649.54420093
Ra90 ns90 0 1649.54420093
Ga89 ns89 0 ns90 0 -0.00657593091571
Ga90 ns90 0 ns89 0 0.00657593091571
Ca91 ns91 0 1e-012
Ca92 ns92 0 1e-012
Ra91 ns91 0 341.156084699
Ra92 ns92 0 341.156084699
Ga91 ns91 0 ns92 0 -0.00796944107288
Ga92 ns92 0 ns91 0 0.00796944107288
Ca93 ns93 0 1e-012
Ca94 ns94 0 1e-012
Ra93 ns93 0 516.475321808
Ra94 ns94 0 516.475321808
Ga93 ns93 0 ns94 0 -0.0102365217124
Ga94 ns94 0 ns93 0 0.0102365217124
Ca95 ns95 0 1e-012
Ca96 ns96 0 1e-012
Ra95 ns95 0 820.34827673
Ra96 ns96 0 820.34827673
Ga95 ns95 0 ns96 0 -0.0119223617999
Ga96 ns96 0 ns95 0 0.0119223617999
Ca97 ns97 0 1e-012
Ca98 ns98 0 1e-012
Ra97 ns97 0 1830201.69039
Ra98 ns98 0 1830201.69039
Ga97 ns97 0 ns98 0 -3.29122320222e-007
Ga98 ns98 0 ns97 0 3.29122320222e-007
Ca99 ns99 0 1e-012
Ra99 ns99 0 341822.523256
Ca100 ns100 0 1e-012
Ca101 ns101 0 1e-012
Ra100 ns100 0 515153.525171
Ra101 ns101 0 515153.525171
Ga100 ns100 0 ns101 0 -5.48643472298e-006
Ga101 ns101 0 ns100 0 5.48643472298e-006
Ca102 ns102 0 1e-012
Ca103 ns103 0 1e-012
Ra102 ns102 0 18212965.6651
Ra103 ns103 0 18212965.6651
Ga102 ns102 0 ns103 0 -6.2864857606e-006
Ga103 ns103 0 ns102 0 6.2864857606e-006
Ca104 ns104 0 1e-012
Ra104 ns104 0 44320.6213312
Ca105 ns105 0 1e-012
Ra105 ns105 0 6262.00590243
Ca106 ns106 0 1e-012
Ra106 ns106 0 412.737346017
Ca107 ns107 0 1e-012
Ca108 ns108 0 1e-012
Ra107 ns107 0 1741.14091583
Ra108 ns108 0 1741.14091583
Ga107 ns107 0 ns108 0 -0.00262766053452
Ga108 ns108 0 ns107 0 0.00262766053452
Ca109 ns109 0 1e-012
Ca110 ns110 0 1e-012
Ra109 ns109 0 439.377055405
Ra110 ns110 0 439.377055405
Ga109 ns109 0 ns110 0 -0.00232077541558
Ga110 ns110 0 ns109 0 0.00232077541558
Ca111 ns111 0 1e-012
Ca112 ns112 0 1e-012
Ra111 ns111 0 362.052593974
Ra112 ns112 0 362.052593974
Ga111 ns111 0 ns112 0 -0.00540121243564
Ga112 ns112 0 ns111 0 0.00540121243564
Ca113 ns113 0 1e-012
Ca114 ns114 0 1e-012
Ra113 ns113 0 1649.54420093
Ra114 ns114 0 1649.54420093
Ga113 ns113 0 ns114 0 -0.00657593091571
Ga114 ns114 0 ns113 0 0.00657593091571
Ca115 ns115 0 1e-012
Ca116 ns116 0 1e-012
Ra115 ns115 0 341.156084699
Ra116 ns116 0 341.156084699
Ga115 ns115 0 ns116 0 -0.00796944107288
Ga116 ns116 0 ns115 0 0.00796944107288
Ca117 ns117 0 1e-012
Ca118 ns118 0 1e-012
Ra117 ns117 0 516.475321808
Ra118 ns118 0 516.475321808
Ga117 ns117 0 ns118 0 -0.0102365217124
Ga118 ns118 0 ns117 0 0.0102365217124
Ca119 ns119 0 1e-012
Ca120 ns120 0 1e-012
Ra119 ns119 0 820.34827673
Ra120 ns120 0 820.34827673
Ga119 ns119 0 ns120 0 -0.0119223617999
Ga120 ns120 0 ns119 0 0.0119223617999
Ca121 ns121 0 1e-012
Ca122 ns122 0 1e-012
Ra121 ns121 0 1830201.69039
Ra122 ns122 0 1830201.69039
Ga121 ns121 0 ns122 0 -3.29122320222e-007
Ga122 ns122 0 ns121 0 3.29122320222e-007
Ca123 ns123 0 1e-012
Ra123 ns123 0 341822.523256
Ca124 ns124 0 1e-012
Ca125 ns125 0 1e-012
Ra124 ns124 0 515153.525171
Ra125 ns125 0 515153.525171
Ga124 ns124 0 ns125 0 -5.48643472298e-006
Ga125 ns125 0 ns124 0 5.48643472298e-006
Ca126 ns126 0 1e-012
Ca127 ns127 0 1e-012
Ra126 ns126 0 18212965.6651
Ra127 ns127 0 18212965.6651
Ga126 ns126 0 ns127 0 -6.2864857606e-006
Ga127 ns127 0 ns126 0 6.2864857606e-006
Ca128 ns128 0 1e-012
Ra128 ns128 0 44320.6213312
Ca129 ns129 0 1e-012
Ra129 ns129 0 6262.00590243
Ca130 ns130 0 1e-012
Ra130 ns130 0 412.737346017
Ca131 ns131 0 1e-012
Ca132 ns132 0 1e-012
Ra131 ns131 0 1741.14091583
Ra132 ns132 0 1741.14091583
Ga131 ns131 0 ns132 0 -0.00262766053452
Ga132 ns132 0 ns131 0 0.00262766053452
Ca133 ns133 0 1e-012
Ca134 ns134 0 1e-012
Ra133 ns133 0 439.377055405
Ra134 ns134 0 439.377055405
Ga133 ns133 0 ns134 0 -0.00232077541558
Ga134 ns134 0 ns133 0 0.00232077541558
Ca135 ns135 0 1e-012
Ca136 ns136 0 1e-012
Ra135 ns135 0 362.052593974
Ra136 ns136 0 362.052593974
Ga135 ns135 0 ns136 0 -0.00540121243564
Ga136 ns136 0 ns135 0 0.00540121243564
Ca137 ns137 0 1e-012
Ca138 ns138 0 1e-012
Ra137 ns137 0 1649.54420093
Ra138 ns138 0 1649.54420093
Ga137 ns137 0 ns138 0 -0.00657593091571
Ga138 ns138 0 ns137 0 0.00657593091571
Ca139 ns139 0 1e-012
Ca140 ns140 0 1e-012
Ra139 ns139 0 341.156084699
Ra140 ns140 0 341.156084699
Ga139 ns139 0 ns140 0 -0.00796944107288
Ga140 ns140 0 ns139 0 0.00796944107288
Ca141 ns141 0 1e-012
Ca142 ns142 0 1e-012
Ra141 ns141 0 516.475321808
Ra142 ns142 0 516.475321808
Ga141 ns141 0 ns142 0 -0.0102365217124
Ga142 ns142 0 ns141 0 0.0102365217124
Ca143 ns143 0 1e-012
Ca144 ns144 0 1e-012
Ra143 ns143 0 820.34827673
Ra144 ns144 0 820.34827673
Ga143 ns143 0 ns144 0 -0.0119223617999
Ga144 ns144 0 ns143 0 0.0119223617999

Gb1_1 ns1 0 ni1 0 7.44638063666e-007
Gb3_1 ns3 0 ni1 0 2.92549475814e-006
Gb4_1 ns4 0 ni1 0 6.17324444097e-006
Gb6_1 ns6 0 ni1 0 6.2869653071e-006
Gb8_1 ns8 0 ni1 0 2.25628605819e-005
Gb9_1 ns9 0 ni1 0 0.00015969323817
Gb10_1 ns10 0 ni1 0 0.00242284835538
Gb11_1 ns11 0 ni1 0 0.00275319497726
Gb13_1 ns13 0 ni1 0 0.00455276486183
Gb15_1 ns15 0 ni1 0 0.00681363749525
Gb17_1 ns17 0 ni1 0 0.00663181843636
Gb19_1 ns19 0 ni1 0 0.00904755807038
Gb21_1 ns21 0 ni1 0 0.0106027470923
Gb23_1 ns23 0 ni1 0 0.0120469971284
Gb25_2 ns25 0 ni2 0 7.44638063666e-007
Gb27_2 ns27 0 ni2 0 2.92549475814e-006
Gb28_2 ns28 0 ni2 0 6.17324444097e-006
Gb30_2 ns30 0 ni2 0 6.2869653071e-006
Gb32_2 ns32 0 ni2 0 2.25628605819e-005
Gb33_2 ns33 0 ni2 0 0.00015969323817
Gb34_2 ns34 0 ni2 0 0.00242284835538
Gb35_2 ns35 0 ni2 0 0.00275319497726
Gb37_2 ns37 0 ni2 0 0.00455276486183
Gb39_2 ns39 0 ni2 0 0.00681363749525
Gb41_2 ns41 0 ni2 0 0.00663181843636
Gb43_2 ns43 0 ni2 0 0.00904755807038
Gb45_2 ns45 0 ni2 0 0.0106027470923
Gb47_2 ns47 0 ni2 0 0.0120469971284
Gb49_3 ns49 0 ni3 0 7.44638063666e-007
Gb51_3 ns51 0 ni3 0 2.92549475814e-006
Gb52_3 ns52 0 ni3 0 6.17324444097e-006
Gb54_3 ns54 0 ni3 0 6.2869653071e-006
Gb56_3 ns56 0 ni3 0 2.25628605819e-005
Gb57_3 ns57 0 ni3 0 0.00015969323817
Gb58_3 ns58 0 ni3 0 0.00242284835538
Gb59_3 ns59 0 ni3 0 0.00275319497726
Gb61_3 ns61 0 ni3 0 0.00455276486183
Gb63_3 ns63 0 ni3 0 0.00681363749525
Gb65_3 ns65 0 ni3 0 0.00663181843636
Gb67_3 ns67 0 ni3 0 0.00904755807038
Gb69_3 ns69 0 ni3 0 0.0106027470923
Gb71_3 ns71 0 ni3 0 0.0120469971284
Gb73_4 ns73 0 ni4 0 7.44638063666e-007
Gb75_4 ns75 0 ni4 0 2.92549475814e-006
Gb76_4 ns76 0 ni4 0 6.17324444097e-006
Gb78_4 ns78 0 ni4 0 6.2869653071e-006
Gb80_4 ns80 0 ni4 0 2.25628605819e-005
Gb81_4 ns81 0 ni4 0 0.00015969323817
Gb82_4 ns82 0 ni4 0 0.00242284835538
Gb83_4 ns83 0 ni4 0 0.00275319497726
Gb85_4 ns85 0 ni4 0 0.00455276486183
Gb87_4 ns87 0 ni4 0 0.00681363749525
Gb89_4 ns89 0 ni4 0 0.00663181843636
Gb91_4 ns91 0 ni4 0 0.00904755807038
Gb93_4 ns93 0 ni4 0 0.0106027470923
Gb95_4 ns95 0 ni4 0 0.0120469971284
Gb97_5 ns97 0 ni5 0 7.44638063666e-007
Gb99_5 ns99 0 ni5 0 2.92549475814e-006
Gb100_5 ns100 0 ni5 0 6.17324444097e-006
Gb102_5 ns102 0 ni5 0 6.2869653071e-006
Gb104_5 ns104 0 ni5 0 2.25628605819e-005
Gb105_5 ns105 0 ni5 0 0.00015969323817
Gb106_5 ns106 0 ni5 0 0.00242284835538
Gb107_5 ns107 0 ni5 0 0.00275319497726
Gb109_5 ns109 0 ni5 0 0.00455276486183
Gb111_5 ns111 0 ni5 0 0.00681363749525
Gb113_5 ns113 0 ni5 0 0.00663181843636
Gb115_5 ns115 0 ni5 0 0.00904755807038
Gb117_5 ns117 0 ni5 0 0.0106027470923
Gb119_5 ns119 0 ni5 0 0.0120469971284
Gb121_6 ns121 0 ni6 0 7.44638063666e-007
Gb123_6 ns123 0 ni6 0 2.92549475814e-006
Gb124_6 ns124 0 ni6 0 6.17324444097e-006
Gb126_6 ns126 0 ni6 0 6.2869653071e-006
Gb128_6 ns128 0 ni6 0 2.25628605819e-005
Gb129_6 ns129 0 ni6 0 0.00015969323817
Gb130_6 ns130 0 ni6 0 0.00242284835538
Gb131_6 ns131 0 ni6 0 0.00275319497726
Gb133_6 ns133 0 ni6 0 0.00455276486183
Gb135_6 ns135 0 ni6 0 0.00681363749525
Gb137_6 ns137 0 ni6 0 0.00663181843636
Gb139_6 ns139 0 ni6 0 0.00904755807038
Gb141_6 ns141 0 ni6 0 0.0106027470923
Gb143_6 ns143 0 ni6 0 0.0120469971284

Gc1_1 0 n2 ns1 0 -7.16645627099e-005
Gc1_2 0 n2 ns2 0 -0.000103988329283
Gc1_3 0 n2 ns3 0 8.65742909982e-006
Gc1_4 0 n2 ns4 0 3.24632156951e-005
Gc1_5 0 n2 ns5 0 9.53267350458e-006
Gc1_6 0 n2 ns6 0 -3.20515464616e-007
Gc1_7 0 n2 ns7 0 1.95197201819e-008
Gc1_8 0 n2 ns8 0 -0.00014437046723
Gc1_9 0 n2 ns9 0 0.000400373740381
Gc1_10 0 n2 ns10 0 -0.0275381685808
Gc1_11 0 n2 ns11 0 0.00101408824081
Gc1_12 0 n2 ns12 0 -0.000378312527416
Gc1_13 0 n2 ns13 0 -0.0222618141026
Gc1_14 0 n2 ns14 0 -0.00884768732199
Gc1_15 0 n2 ns15 0 -0.0311949526512
Gc1_16 0 n2 ns16 0 -0.0175104170065
Gc1_17 0 n2 ns17 0 -0.000218173653039
Gc1_18 0 n2 ns18 0 -0.000570139212439
Gc1_19 0 n2 ns19 0 -0.00404879776425
Gc1_20 0 n2 ns20 0 -0.0267746367659
Gc1_21 0 n2 ns21 0 0.00228134040455
Gc1_22 0 n2 ns22 0 -0.00384814467076
Gc1_23 0 n2 ns23 0 0.000947657170556
Gc1_24 0 n2 ns24 0 -0.00127357371675
Gc1_25 0 n2 ns25 0 4.80452724528e-006
Gc1_26 0 n2 ns26 0 -5.2132830991e-005
Gc1_27 0 n2 ns27 0 -0.000146502083865
Gc1_28 0 n2 ns28 0 -5.07379880521e-006
Gc1_29 0 n2 ns29 0 -1.06106065608e-005
Gc1_30 0 n2 ns30 0 2.56494392879e-007
Gc1_31 0 n2 ns31 0 -2.31483023457e-007
Gc1_32 0 n2 ns32 0 3.18268216486e-005
Gc1_33 0 n2 ns33 0 -0.000189748157257
Gc1_34 0 n2 ns34 0 -0.000875962327081
Gc1_35 0 n2 ns35 0 -0.00018802754256
Gc1_36 0 n2 ns36 0 9.46640023303e-005
Gc1_37 0 n2 ns37 0 0.0053282769123
Gc1_38 0 n2 ns38 0 0.00235029518938
Gc1_39 0 n2 ns39 0 0.00581186046451
Gc1_40 0 n2 ns40 0 0.00313503764341
Gc1_41 0 n2 ns41 0 5.46627400324e-005
Gc1_42 0 n2 ns42 0 9.05021254863e-005
Gc1_43 0 n2 ns43 0 0.0026449072885
Gc1_44 0 n2 ns44 0 0.00557732879415
Gc1_45 0 n2 ns45 0 -5.65820191424e-005
Gc1_46 0 n2 ns46 0 0.0012981778247
Gc1_47 0 n2 ns47 0 -6.72610918212e-005
Gc1_48 0 n2 ns48 0 0.000488718781868
Gc1_49 0 n2 ns49 0 -1.38709705112e-006
Gc1_50 0 n2 ns50 0 -5.44537879369e-005
Gc1_51 0 n2 ns51 0 -0.000132188651381
Gc1_52 0 n2 ns52 0 1.82701091449e-006
Gc1_53 0 n2 ns53 0 -8.34987484264e-006
Gc1_54 0 n2 ns54 0 2.04368467255e-007
Gc1_55 0 n2 ns55 0 -1.73075793719e-007
Gc1_56 0 n2 ns56 0 4.83799858071e-006
Gc1_57 0 n2 ns57 0 -0.000114546131969
Gc1_58 0 n2 ns58 0 -0.005552491253
Gc1_59 0 n2 ns59 0 9.17131139701e-006
Gc1_60 0 n2 ns60 0 4.44145461861e-005
Gc1_61 0 n2 ns61 0 0.00131777928394
Gc1_62 0 n2 ns62 0 0.00102299949152
Gc1_63 0 n2 ns63 0 0.00161053301987
Gc1_64 0 n2 ns64 0 0.000887723725922
Gc1_65 0 n2 ns65 0 3.41702039488e-005
Gc1_66 0 n2 ns66 0 -3.42937562174e-006
Gc1_67 0 n2 ns67 0 0.00224070416193
Gc1_68 0 n2 ns68 0 0.00358445323949
Gc1_69 0 n2 ns69 0 -0.000116961591686
Gc1_70 0 n2 ns70 0 0.0007907121397
Gc1_71 0 n2 ns71 0 -2.96279825019e-006
Gc1_72 0 n2 ns72 0 2.56842832567e-005
Gc1_73 0 n2 ns73 0 1.22835688588e-005
Gc1_74 0 n2 ns74 0 3.6698520234e-005
Gc1_75 0 n2 ns75 0 -5.83950794298e-006
Gc1_76 0 n2 ns76 0 -1.37670638706e-006
Gc1_77 0 n2 ns77 0 -1.90521402904e-006
Gc1_78 0 n2 ns78 0 -1.65061225665e-008
Gc1_79 0 n2 ns79 0 -2.43133393934e-008
Gc1_80 0 n2 ns80 0 -5.40195018722e-007
Gc1_81 0 n2 ns81 0 3.12868466128e-006
Gc1_82 0 n2 ns82 0 -0.0015872581433
Gc1_83 0 n2 ns83 0 6.45965878638e-005
Gc1_84 0 n2 ns84 0 2.55154755887e-005
Gc1_85 0 n2 ns85 0 -0.00095660905535
Gc1_86 0 n2 ns86 0 -0.001793772236
Gc1_87 0 n2 ns87 0 0.000710168489902
Gc1_88 0 n2 ns88 0 -0.000987335162219
Gc1_89 0 n2 ns89 0 2.4675888835e-005
Gc1_90 0 n2 ns90 0 -2.93835160407e-005
Gc1_91 0 n2 ns91 0 0.000435554175529
Gc1_92 0 n2 ns92 0 4.54376367e-005
Gc1_93 0 n2 ns93 0 2.91582437705e-005
Gc1_94 0 n2 ns94 0 0.000268359361953
Gc1_95 0 n2 ns95 0 5.6694251663e-005
Gc1_96 0 n2 ns96 0 -2.94667778622e-005
Gc1_97 0 n2 ns97 0 1.22113946689e-005
Gc1_98 0 n2 ns98 0 3.19492089362e-005
Gc1_99 0 n2 ns99 0 -8.74280423463e-006
Gc1_100 0 n2 ns100 0 -7.60412494704e-007
Gc1_101 0 n2 ns101 0 -2.52798957056e-006
Gc1_102 0 n2 ns102 0 -1.3014361735e-008
Gc1_103 0 n2 ns103 0 -2.16227034713e-008
Gc1_104 0 n2 ns104 0 -2.9351369491e-006
Gc1_105 0 n2 ns105 0 6.65259271702e-007
Gc1_106 0 n2 ns106 0 -0.00135521761308
Gc1_107 0 n2 ns107 0 5.0484085231e-005
Gc1_108 0 n2 ns108 0 2.55030684441e-005
Gc1_109 0 n2 ns109 0 -0.000127338149592
Gc1_110 0 n2 ns110 0 -0.000770192830101
Gc1_111 0 n2 ns111 0 -0.00139230407682
Gc1_112 0 n2 ns112 0 -0.000938610469413
Gc1_113 0 n2 ns113 0 2.0377964693e-005
Gc1_114 0 n2 ns114 0 -2.25658073544e-005
Gc1_115 0 n2 ns115 0 0.00107546729248
Gc1_116 0 n2 ns116 0 -0.00056708651773
Gc1_117 0 n2 ns117 0 0.000187006659718
Gc1_118 0 n2 ns118 0 -2.80697743465e-005
Gc1_119 0 n2 ns119 0 -1.85968480479e-006
Gc1_120 0 n2 ns120 0 0.000211637786731
Gc1_121 0 n2 ns121 0 9.71834057059e-006
Gc1_122 0 n2 ns122 0 -7.95962787246e-007
Gc1_123 0 n2 ns123 0 1.0804165829e-005
Gc1_124 0 n2 ns124 0 4.57718506941e-006
Gc1_125 0 n2 ns125 0 1.66591473736e-006
Gc1_126 0 n2 ns126 0 -9.81700416011e-008
Gc1_127 0 n2 ns127 0 5.77795772902e-008
Gc1_128 0 n2 ns128 0 -2.44674464088e-005
Gc1_129 0 n2 ns129 0 2.31169866933e-005
Gc1_130 0 n2 ns130 0 0.00714208623918
Gc1_131 0 n2 ns131 0 0.00018922978627
Gc1_132 0 n2 ns132 0 3.62375639423e-005
Gc1_133 0 n2 ns133 0 -0.0094563064028
Gc1_134 0 n2 ns134 0 -0.00470664669239
Gc1_135 0 n2 ns135 0 0.00160445601824
Gc1_136 0 n2 ns136 0 0.000591376368305
Gc1_137 0 n2 ns137 0 3.54957011765e-005
Gc1_138 0 n2 ns138 0 -2.56300566283e-005
Gc1_139 0 n2 ns139 0 0.00204709335799
Gc1_140 0 n2 ns140 0 0.00164692716736
Gc1_141 0 n2 ns141 0 -0.000224810679345
Gc1_142 0 n2 ns142 0 0.000947104057081
Gc1_143 0 n2 ns143 0 -0.00014328548527
Gc1_144 0 n2 ns144 0 4.15085779514e-005
Gd1_1 0 n2 ni1 0 -0.0127304035545
Gd1_2 0 n2 ni2 0 0.00795700082958
Gd1_3 0 n2 ni3 0 0.00392854833483
Gd1_4 0 n2 ni4 0 0.000509977234261
Gd1_5 0 n2 ni5 0 0.000325881398927
Gd1_6 0 n2 ni6 0 0.000919786998872
Gc2_1 0 n4 ns1 0 -9.80352015234e-006
Gc2_2 0 n4 ns2 0 -6.82206546229e-005
Gc2_3 0 n4 ns3 0 -0.000129643359682
Gc2_4 0 n4 ns4 0 -9.31367810829e-006
Gc2_5 0 n4 ns5 0 -9.35136460172e-006
Gc2_6 0 n4 ns6 0 2.74868833751e-007
Gc2_7 0 n4 ns7 0 -2.77207575385e-007
Gc2_8 0 n4 ns8 0 3.22041392322e-005
Gc2_9 0 n4 ns9 0 -0.000176314657302
Gc2_10 0 n4 ns10 0 -0.00091884744313
Gc2_11 0 n4 ns11 0 -0.000185997463058
Gc2_12 0 n4 ns12 0 9.88684455879e-005
Gc2_13 0 n4 ns13 0 0.00531521076701
Gc2_14 0 n4 ns14 0 0.00228905540595
Gc2_15 0 n4 ns15 0 0.00586658529265
Gc2_16 0 n4 ns16 0 0.00309785284651
Gc2_17 0 n4 ns17 0 5.55457957739e-005
Gc2_18 0 n4 ns18 0 9.10627952698e-005
Gc2_19 0 n4 ns19 0 0.0026537798555
Gc2_20 0 n4 ns20 0 0.00561352161356
Gc2_21 0 n4 ns21 0 -5.45511619624e-005
Gc2_22 0 n4 ns22 0 0.00130113325216
Gc2_23 0 n4 ns23 0 -7.60940628668e-005
Gc2_24 0 n4 ns24 0 0.000492535388387
Gc2_25 0 n4 ns25 0 0.000532969630471
Gc2_26 0 n4 ns26 0 -0.00248925063015
Gc2_27 0 n4 ns27 0 0.000466059321119
Gc2_28 0 n4 ns28 0 4.29682120566e-005
Gc2_29 0 n4 ns29 0 2.155617498e-005
Gc2_30 0 n4 ns30 0 -4.3013248513e-007
Gc2_31 0 n4 ns31 0 6.68881086932e-008
Gc2_32 0 n4 ns32 0 -8.87361854392e-005
Gc2_33 0 n4 ns33 0 0.000376406114622
Gc2_34 0 n4 ns34 0 -0.0138619019987
Gc2_35 0 n4 ns35 0 0.00024803011662
Gc2_36 0 n4 ns36 0 -0.000129088248542
Gc2_37 0 n4 ns37 0 -0.01021838935
Gc2_38 0 n4 ns38 0 -0.0031063405659
Gc2_39 0 n4 ns39 0 -0.0138698923975
Gc2_40 0 n4 ns40 0 -0.00151345121766
Gc2_41 0 n4 ns41 0 -0.000369563920684
Gc2_42 0 n4 ns42 0 -0.000209535729835
Gc2_43 0 n4 ns43 0 -0.0116055688223
Gc2_44 0 n4 ns44 0 -0.0175866278777
Gc2_45 0 n4 ns45 0 0.00475371775876
Gc2_46 0 n4 ns46 0 -0.00602245984419
Gc2_47 0 n4 ns47 0 0.00250536792685
Gc2_48 0 n4 ns48 0 -0.000676683046771
Gc2_49 0 n4 ns49 0 -0.000602276859973
Gc2_50 0 n4 ns50 0 0.00222848296622
Gc2_51 0 n4 ns51 0 -0.000596099030042
Gc2_52 0 n4 ns52 0 -2.05601055651e-005
Gc2_53 0 n4 ns53 0 -2.30918569456e-005
Gc2_54 0 n4 ns54 0 4.68810562493e-007
Gc2_55 0 n4 ns55 0 -2.16997372576e-007
Gc2_56 0 n4 ns56 0 4.22931451205e-006
Gc2_57 0 n4 ns57 0 -0.000176469585129
Gc2_58 0 n4 ns58 0 -0.00471088381019
Gc2_59 0 n4 ns59 0 -4.88499551542e-005
Gc2_60 0 n4 ns60 0 7.32330639198e-005
Gc2_61 0 n4 ns61 0 0.0035513329065
Gc2_62 0 n4 ns62 0 0.00111412770493
Gc2_63 0 n4 ns63 0 -0.00180300855061
Gc2_64 0 n4 ns64 0 -0.00359298429853
Gc2_65 0 n4 ns65 0 6.55872018615e-005
Gc2_66 0 n4 ns66 0 -2.43035364017e-005
Gc2_67 0 n4 ns67 0 0.00681499962883
Gc2_68 0 n4 ns68 0 -0.00252829553142
Gc2_69 0 n4 ns69 0 -0.00182822671809
Gc2_70 0 n4 ns70 0 0.00191617698749
Gc2_71 0 n4 ns71 0 -0.00098806492093
Gc2_72 0 n4 ns72 0 0.000362972384632
Gc2_73 0 n4 ns73 0 -0.000597725636802
Gc2_74 0 n4 ns74 0 0.00232938566359
Gc2_75 0 n4 ns75 0 -0.000458111048877
Gc2_76 0 n4 ns76 0 -1.81973830572e-005
Gc2_77 0 n4 ns77 0 -1.2873017223e-005
Gc2_78 0 n4 ns78 0 1.96544879219e-007
Gc2_79 0 n4 ns79 0 -4.23518550802e-008
Gc2_80 0 n4 ns80 0 -6.43408978263e-006
Gc2_81 0 n4 ns81 0 0.000181701698343
Gc2_82 0 n4 ns82 0 0.00742545998559
Gc2_83 0 n4 ns83 0 4.41773608621e-005
Gc2_84 0 n4 ns84 0 3.72536337264e-005
Gc2_85 0 n4 ns85 0 0.00162218394375
Gc2_86 0 n4 ns86 0 -0.00453195525923
Gc2_87 0 n4 ns87 0 -0.00922500700807
Gc2_88 0 n4 ns88 0 -0.000536298191375
Gc2_89 0 n4 ns89 0 2.58983100353e-006
Gc2_90 0 n4 ns90 0 2.61305012476e-005
Gc2_91 0 n4 ns91 0 0.0034699518081
Gc2_92 0 n4 ns92 0 0.00134307190607
Gc2_93 0 n4 ns93 0 0.00213105152432
Gc2_94 0 n4 ns94 0 0.000399164142936
Gc2_95 0 n4 ns95 0 -0.00131910712735
Gc2_96 0 n4 ns96 0 -0.000466602565735
Gc2_97 0 n4 ns97 0 0.00061151780218
Gc2_98 0 n4 ns98 0 -0.00231655699609
Gc2_99 0 n4 ns99 0 0.000437329499947
Gc2_100 0 n4 ns100 0 1.39146758252e-005
Gc2_101 0 n4 ns101 0 1.10824296614e-005
Gc2_102 0 n4 ns102 0 -1.83658316047e-007
Gc2_103 0 n4 ns103 0 -3.46234915594e-008
Gc2_104 0 n4 ns104 0 1.86248891599e-005
Gc2_105 0 n4 ns105 0 -0.000176161062096
Gc2_106 0 n4 ns106 0 -0.00706395355273
Gc2_107 0 n4 ns107 0 -5.32348909179e-005
Gc2_108 0 n4 ns108 0 -3.20660684704e-005
Gc2_109 0 n4 ns109 0 -0.000794476147687
Gc2_110 0 n4 ns110 0 0.00424193278349
Gc2_111 0 n4 ns111 0 0.00919726015166
Gc2_112 0 n4 ns112 0 0.000956246533798
Gc2_113 0 n4 ns113 0 2.14024486603e-005
Gc2_114 0 n4 ns114 0 -2.34325326031e-006
Gc2_115 0 n4 ns115 0 -0.0037504491299
Gc2_116 0 n4 ns116 0 -0.000659133774934
Gc2_117 0 n4 ns117 0 -0.00218931380246
Gc2_118 0 n4 ns118 0 -0.000879094914235
Gc2_119 0 n4 ns119 0 0.0012689501857
Gc2_120 0 n4 ns120 0 0.000638970867151
Gc2_121 0 n4 ns121 0 7.92402861843e-006
Gc2_122 0 n4 ns122 0 -6.9403375649e-007
Gc2_123 0 n4 ns123 0 3.27565384389e-005
Gc2_124 0 n4 ns124 0 1.03965899192e-006
Gc2_125 0 n4 ns125 0 9.35298526193e-007
Gc2_126 0 n4 ns126 0 -4.80761087039e-008
Gc2_127 0 n4 ns127 0 4.07423498482e-009
Gc2_128 0 n4 ns128 0 -1.10236704551e-005
Gc2_129 0 n4 ns129 0 -1.17162476449e-005
Gc2_130 0 n4 ns130 0 0.00893206664243
Gc2_131 0 n4 ns131 0 0.000136278822905
Gc2_132 0 n4 ns132 0 -5.64281153664e-006
Gc2_133 0 n4 ns133 0 -0.00678932783475
Gc2_134 0 n4 ns134 0 -0.00315603397655
Gc2_135 0 n4 ns135 0 6.84582316632e-005
Gc2_136 0 n4 ns136 0 0.00184699926266
Gc2_137 0 n4 ns137 0 2.2604889508e-005
Gc2_138 0 n4 ns138 0 -1.86607532955e-005
Gc2_139 0 n4 ns139 0 0.000653733793002
Gc2_140 0 n4 ns140 0 0.00220974414111
Gc2_141 0 n4 ns141 0 -2.94946241056e-005
Gc2_142 0 n4 ns142 0 0.000791739341834
Gc2_143 0 n4 ns143 0 -0.000132205683262
Gc2_144 0 n4 ns144 0 5.53497021517e-005
Gd2_1 0 n4 ni1 0 0.00796186489941
Gd2_2 0 n4 ni2 0 -0.00138317834809
Gd2_3 0 n4 ni3 0 0.00593478319867
Gd2_4 0 n4 ni4 0 0.000300501502137
Gd2_5 0 n4 ni5 0 0.000212026943434
Gd2_6 0 n4 ni6 0 0.000824877844372
Gc3_1 0 n6 ns1 0 -2.193377669e-005
Gc3_2 0 n6 ns2 0 -7.5281896952e-005
Gc3_3 0 n6 ns3 0 -0.000101371297838
Gc3_4 0 n6 ns4 0 -2.42256329106e-006
Gc3_5 0 n6 ns5 0 -5.24561058705e-006
Gc3_6 0 n6 ns6 0 1.98530285882e-007
Gc3_7 0 n6 ns7 0 -2.0933352645e-007
Gc3_8 0 n6 ns8 0 2.12466375058e-006
Gc3_9 0 n6 ns9 0 -9.76993419034e-005
Gc3_10 0 n6 ns10 0 -0.00557142563308
Gc3_11 0 n6 ns11 0 1.07834476414e-005
Gc3_12 0 n6 ns12 0 4.96219657494e-005
Gc3_13 0 n6 ns13 0 0.00134472318421
Gc3_14 0 n6 ns14 0 0.000975424389427
Gc3_15 0 n6 ns15 0 0.00165761993196
Gc3_16 0 n6 ns16 0 0.000885125157881
Gc3_17 0 n6 ns17 0 3.55184913082e-005
Gc3_18 0 n6 ns18 0 -2.30782366017e-006
Gc3_19 0 n6 ns19 0 0.00224869025556
Gc3_20 0 n6 ns20 0 0.00362511030705
Gc3_21 0 n6 ns21 0 -0.000135664475577
Gc3_22 0 n6 ns22 0 0.000793235425137
Gc3_23 0 n6 ns23 0 2.10216114972e-006
Gc3_24 0 n6 ns24 0 2.51534278055e-005
Gc3_25 0 n6 ns25 0 -0.00060111012877
Gc3_26 0 n6 ns26 0 0.00223230535007
Gc3_27 0 n6 ns27 0 -0.000589196420321
Gc3_28 0 n6 ns28 0 -2.16608617696e-005
Gc3_29 0 n6 ns29 0 -2.23366186205e-005
Gc3_30 0 n6 ns30 0 4.61044617687e-007
Gc3_31 0 n6 ns31 0 -2.28033780783e-007
Gc3_32 0 n6 ns32 0 4.43835595383e-006
Gc3_33 0 n6 ns33 0 -0.000170834640261
Gc3_34 0 n6 ns34 0 -0.00471697562206
Gc3_35 0 n6 ns35 0 -4.82069199327e-005
Gc3_36 0 n6 ns36 0 7.43339030807e-005
Gc3_37 0 n6 ns37 0 0.00354961820345
Gc3_38 0 n6 ns38 0 0.0011041069845
Gc3_39 0 n6 ns39 0 -0.00182908221616
Gc3_40 0 n6 ns40 0 -0.00360112128338
Gc3_41 0 n6 ns41 0 6.5889242603e-005
Gc3_42 0 n6 ns42 0 -2.42995058635e-005
Gc3_43 0 n6 ns43 0 0.0068447403588
Gc3_44 0 n6 ns44 0 -0.0025298829067
Gc3_45 0 n6 ns45 0 -0.00182218007446
Gc3_46 0 n6 ns46 0 0.00190847671131
Gc3_47 0 n6 ns47 0 -0.000983137156068
Gc3_48 0 n6 ns48 0 0.000369382018653
Gc3_49 0 n6 ns49 0 0.000546282088719
Gc3_50 0 n6 ns50 0 -0.00249990786688
Gc3_51 0 n6 ns51 0 0.000450840747092
Gc3_52 0 n6 ns52 0 4.07828501733e-005
Gc3_53 0 n6 ns53 0 2.01616197036e-005
Gc3_54 0 n6 ns54 0 -3.85527467377e-007
Gc3_55 0 n6 ns55 0 4.45140921865e-008
Gc3_56 0 n6 ns56 0 -7.92090333897e-005
Gc3_57 0 n6 ns57 0 0.000325082765599
Gc3_58 0 n6 ns58 0 -0.0108231406085
Gc3_59 0 n6 ns59 0 0.000178059020952
Gc3_60 0 n6 ns60 0 -7.8772241208e-005
Gc3_61 0 n6 ns61 0 -0.007411775923
Gc3_62 0 n6 ns62 0 -0.00168093078847
Gc3_63 0 n6 ns63 0 -0.0121790194703
Gc3_64 0 n6 ns64 0 -0.00141602708785