**************************************************
* Manufacturer:           Wurth Elektronik 
* Kinds:                  AQ Transformer
* Matchcode:              WE-LAN AQ
* Library Type:           LTspice
* Version:                rev22b
* Created/modified by:    Ella      
* Date and Time:          2022-08-18
* Team:                   eiSos EDA Service  
* Contact:                libraries@we-online.com
**************************************************
* Copyright(C) 2022 Würth Elektronik eiSos GmbH & Co. KG
* All Rights Reserved.
**************************************************
* Disclaimer: While Würth Elektronik eiSos has made every reasonable effort to ensure the accuracy
* of the simulation models provided, Würth Elektronik eiSos does not guarantee the exemption of error on
* the simulation models, nor does Würth Elektronik eiSos guarantee that the simulation model is current.
* Würth Elektronik eiSos reserves the right to make any adjustments at any time without notice.
* Würth Elektronik eiSos expressly disclaims all implied warranties regarding this simulation model.
**************************************************
***********************************************************************************
********************************749010310******************************************
***********************************************************************************
.subckt 749010310 1 2 3 4 5 6
Vam1 1 n2 dc 0
Rport1 n2 0 50
Vam2 2 n4 dc 0
Rport2 n4 0 50
Vam3 3 n6 dc 0
Rport3 n6 0 50
Vam4 4 n8 dc 0
Rport4 n8 0 50
Vam5 5 n10 dc 0
Rport5 n10 0 50
Vam6 6 n12 dc 0
Rport6 n12 0 50

Fi1 0 ni1 Vam1 50
Gi1 0 ni1 1 0 1
Rt1 ni1 0 1
Fi2 0 ni2 Vam2 50
Gi2 0 ni2 2 0 1
Rt2 ni2 0 1
Fi3 0 ni3 Vam3 50
Gi3 0 ni3 3 0 1
Rt3 ni3 0 1
Fi4 0 ni4 Vam4 50
Gi4 0 ni4 4 0 1
Rt4 ni4 0 1
Fi5 0 ni5 Vam5 50
Gi5 0 ni5 5 0 1
Rt5 ni5 0 1
Fi6 0 ni6 Vam6 50
Gi6 0 ni6 6 0 1
Rt6 ni6 0 1

Ca1 ns1 0 1e-012
Ra1 ns1 0 24571769.0783
Ca2 ns2 0 1e-012
Ra2 ns2 0 2153405.51496
Ca3 ns3 0 1e-012
Ra3 ns3 0 57609.7762981
Ca4 ns4 0 1e-012
Ca5 ns5 0 1e-012
Ra4 ns4 0 52740.9387589
Ra5 ns5 0 52740.9387589
Ga4 ns4 0 ns5 0 -1.3598806823e-005
Ga5 ns5 0 ns4 0 1.3598806823e-005
Ca6 ns6 0 1e-012
Ra6 ns6 0 14439.9262207
Ca7 ns7 0 1e-012
Ca8 ns8 0 1e-012
Ra7 ns7 0 25070.6581886
Ra8 ns8 0 25070.6581886
Ga7 ns7 0 ns8 0 -0.000280713377682
Ga8 ns8 0 ns7 0 0.000280713377682
Ca9 ns9 0 1e-012
Ca10 ns10 0 1e-012
Ra9 ns9 0 3337.13944229
Ra10 ns10 0 3337.13944229
Ga9 ns9 0 ns10 0 -0.000136130274128
Ga10 ns10 0 ns9 0 0.000136130274128
Ca11 ns11 0 1e-012
Ra11 ns11 0 1706.23387641
Ca12 ns12 0 1e-012
Ca13 ns13 0 1e-012
Ra12 ns12 0 7621.90631845
Ra13 ns13 0 7621.90631845
Ga12 ns12 0 ns13 0 -0.0010879937454
Ga13 ns13 0 ns12 0 0.0010879937454
Ca14 ns14 0 1e-012
Ra14 ns14 0 830.71161468
Ca15 ns15 0 1e-012
Ca16 ns16 0 1e-012
Ra15 ns15 0 719.308671092
Ra16 ns16 0 719.308671092
Ga15 ns15 0 ns16 0 -0.00170454762179
Ga16 ns16 0 ns15 0 0.00170454762179
Ca17 ns17 0 1e-012
Ca18 ns18 0 1e-012
Ra17 ns17 0 3864.41475837
Ra18 ns18 0 3864.41475837
Ga17 ns17 0 ns18 0 -0.0022802395707
Ga18 ns18 0 ns17 0 0.0022802395707
Ca19 ns19 0 1e-012
Ca20 ns20 0 1e-012
Ra19 ns19 0 611.871928973
Ra20 ns20 0 611.871928973
Ga19 ns19 0 ns20 0 -0.00283017154039
Ga20 ns20 0 ns19 0 0.00283017154039
Ca21 ns21 0 1e-012
Ca22 ns22 0 1e-012
Ra21 ns21 0 1050.55899359
Ra22 ns22 0 1050.55899359
Ga21 ns21 0 ns22 0 -0.00370069056382
Ga22 ns22 0 ns21 0 0.00370069056382
Ca23 ns23 0 1e-012
Ra23 ns23 0 24571769.0783
Ca24 ns24 0 1e-012
Ra24 ns24 0 2153405.51496
Ca25 ns25 0 1e-012
Ra25 ns25 0 57609.7762981
Ca26 ns26 0 1e-012
Ca27 ns27 0 1e-012
Ra26 ns26 0 52740.9387589
Ra27 ns27 0 52740.9387589
Ga26 ns26 0 ns27 0 -1.3598806823e-005
Ga27 ns27 0 ns26 0 1.3598806823e-005
Ca28 ns28 0 1e-012
Ra28 ns28 0 14439.9262207
Ca29 ns29 0 1e-012
Ca30 ns30 0 1e-012
Ra29 ns29 0 25070.6581886
Ra30 ns30 0 25070.6581886
Ga29 ns29 0 ns30 0 -0.000280713377682
Ga30 ns30 0 ns29 0 0.000280713377682
Ca31 ns31 0 1e-012
Ca32 ns32 0 1e-012
Ra31 ns31 0 3337.13944229
Ra32 ns32 0 3337.13944229
Ga31 ns31 0 ns32 0 -0.000136130274128
Ga32 ns32 0 ns31 0 0.000136130274128
Ca33 ns33 0 1e-012
Ra33 ns33 0 1706.23387641
Ca34 ns34 0 1e-012
Ca35 ns35 0 1e-012
Ra34 ns34 0 7621.90631845
Ra35 ns35 0 7621.90631845
Ga34 ns34 0 ns35 0 -0.0010879937454
Ga35 ns35 0 ns34 0 0.0010879937454
Ca36 ns36 0 1e-012
Ra36 ns36 0 830.71161468
Ca37 ns37 0 1e-012
Ca38 ns38 0 1e-012
Ra37 ns37 0 719.308671092
Ra38 ns38 0 719.308671092
Ga37 ns37 0 ns38 0 -0.00170454762179
Ga38 ns38 0 ns37 0 0.00170454762179
Ca39 ns39 0 1e-012
Ca40 ns40 0 1e-012
Ra39 ns39 0 3864.41475837
Ra40 ns40 0 3864.41475837
Ga39 ns39 0 ns40 0 -0.0022802395707
Ga40 ns40 0 ns39 0 0.0022802395707
Ca41 ns41 0 1e-012
Ca42 ns42 0 1e-012
Ra41 ns41 0 611.871928973
Ra42 ns42 0 611.871928973
Ga41 ns41 0 ns42 0 -0.00283017154039
Ga42 ns42 0 ns41 0 0.00283017154039
Ca43 ns43 0 1e-012
Ca44 ns44 0 1e-012
Ra43 ns43 0 1050.55899359
Ra44 ns44 0 1050.55899359
Ga43 ns43 0 ns44 0 -0.00370069056382
Ga44 ns44 0 ns43 0 0.00370069056382
Ca45 ns45 0 1e-012
Ra45 ns45 0 24571769.0783
Ca46 ns46 0 1e-012
Ra46 ns46 0 2153405.51496
Ca47 ns47 0 1e-012
Ra47 ns47 0 57609.7762981
Ca48 ns48 0 1e-012
Ca49 ns49 0 1e-012
Ra48 ns48 0 52740.9387589
Ra49 ns49 0 52740.9387589
Ga48 ns48 0 ns49 0 -1.3598806823e-005
Ga49 ns49 0 ns48 0 1.3598806823e-005
Ca50 ns50 0 1e-012
Ra50 ns50 0 14439.9262207
Ca51 ns51 0 1e-012
Ca52 ns52 0 1e-012
Ra51 ns51 0 25070.6581886
Ra52 ns52 0 25070.6581886
Ga51 ns51 0 ns52 0 -0.000280713377682
Ga52 ns52 0 ns51 0 0.000280713377682
Ca53 ns53 0 1e-012
Ca54 ns54 0 1e-012
Ra53 ns53 0 3337.13944229
Ra54 ns54 0 3337.13944229
Ga53 ns53 0 ns54 0 -0.000136130274128
Ga54 ns54 0 ns53 0 0.000136130274128
Ca55 ns55 0 1e-012
Ra55 ns55 0 1706.23387641
Ca56 ns56 0 1e-012
Ca57 ns57 0 1e-012
Ra56 ns56 0 7621.90631845
Ra57 ns57 0 7621.90631845
Ga56 ns56 0 ns57 0 -0.0010879937454
Ga57 ns57 0 ns56 0 0.0010879937454
Ca58 ns58 0 1e-012
Ra58 ns58 0 830.71161468
Ca59 ns59 0 1e-012
Ca60 ns60 0 1e-012
Ra59 ns59 0 719.308671092
Ra60 ns60 0 719.308671092
Ga59 ns59 0 ns60 0 -0.00170454762179
Ga60 ns60 0 ns59 0 0.00170454762179
Ca61 ns61 0 1e-012
Ca62 ns62 0 1e-012
Ra61 ns61 0 3864.41475837
Ra62 ns62 0 3864.41475837
Ga61 ns61 0 ns62 0 -0.0022802395707
Ga62 ns62 0 ns61 0 0.0022802395707
Ca63 ns63 0 1e-012
Ca64 ns64 0 1e-012
Ra63 ns63 0 611.871928973
Ra64 ns64 0 611.871928973
Ga63 ns63 0 ns64 0 -0.00283017154039
Ga64 ns64 0 ns63 0 0.00283017154039
Ca65 ns65 0 1e-012
Ca66 ns66 0 1e-012
Ra65 ns65 0 1050.55899359
Ra66 ns66 0 1050.55899359
Ga65 ns65 0 ns66 0 -0.00370069056382
Ga66 ns66 0 ns65 0 0.00370069056382
Ca67 ns67 0 1e-012
Ra67 ns67 0 24571769.0783
Ca68 ns68 0 1e-012
Ra68 ns68 0 2153405.51496
Ca69 ns69 0 1e-012
Ra69 ns69 0 57609.7762981
Ca70 ns70 0 1e-012
Ca71 ns71 0 1e-012
Ra70 ns70 0 52740.9387589
Ra71 ns71 0 52740.9387589
Ga70 ns70 0 ns71 0 -1.3598806823e-005
Ga71 ns71 0 ns70 0 1.3598806823e-005
Ca72 ns72 0 1e-012
Ra72 ns72 0 14439.9262207
Ca73 ns73 0 1e-012
Ca74 ns74 0 1e-012
Ra73 ns73 0 25070.6581886
Ra74 ns74 0 25070.6581886
Ga73 ns73 0 ns74 0 -0.000280713377682
Ga74 ns74 0 ns73 0 0.000280713377682
Ca75 ns75 0 1e-012
Ca76 ns76 0 1e-012
Ra75 ns75 0 3337.13944229
Ra76 ns76 0 3337.13944229
Ga75 ns75 0 ns76 0 -0.000136130274128
Ga76 ns76 0 ns75 0 0.000136130274128
Ca77 ns77 0 1e-012
Ra77 ns77 0 1706.23387641
Ca78 ns78 0 1e-012
Ca79 ns79 0 1e-012
Ra78 ns78 0 7621.90631845
Ra79 ns79 0 7621.90631845
Ga78 ns78 0 ns79 0 -0.0010879937454
Ga79 ns79 0 ns78 0 0.0010879937454
Ca80 ns80 0 1e-012
Ra80 ns80 0 830.71161468
Ca81 ns81 0 1e-012
Ca82 ns82 0 1e-012
Ra81 ns81 0 719.308671092
Ra82 ns82 0 719.308671092
Ga81 ns81 0 ns82 0 -0.00170454762179
Ga82 ns82 0 ns81 0 0.00170454762179
Ca83 ns83 0 1e-012
Ca84 ns84 0 1e-012
Ra83 ns83 0 3864.41475837
Ra84 ns84 0 3864.41475837
Ga83 ns83 0 ns84 0 -0.0022802395707
Ga84 ns84 0 ns83 0 0.0022802395707
Ca85 ns85 0 1e-012
Ca86 ns86 0 1e-012
Ra85 ns85 0 611.871928973
Ra86 ns86 0 611.871928973
Ga85 ns85 0 ns86 0 -0.00283017154039
Ga86 ns86 0 ns85 0 0.00283017154039
Ca87 ns87 0 1e-012
Ca88 ns88 0 1e-012
Ra87 ns87 0 1050.55899359
Ra88 ns88 0 1050.55899359
Ga87 ns87 0 ns88 0 -0.00370069056382
Ga88 ns88 0 ns87 0 0.00370069056382
Ca89 ns89 0 1e-012
Ra89 ns89 0 24571769.0783
Ca90 ns90 0 1e-012
Ra90 ns90 0 2153405.51496
Ca91 ns91 0 1e-012
Ra91 ns91 0 57609.7762981
Ca92 ns92 0 1e-012
Ca93 ns93 0 1e-012
Ra92 ns92 0 52740.9387589
Ra93 ns93 0 52740.9387589
Ga92 ns92 0 ns93 0 -1.3598806823e-005
Ga93 ns93 0 ns92 0 1.3598806823e-005
Ca94 ns94 0 1e-012
Ra94 ns94 0 14439.9262207
Ca95 ns95 0 1e-012
Ca96 ns96 0 1e-012
Ra95 ns95 0 25070.6581886
Ra96 ns96 0 25070.6581886
Ga95 ns95 0 ns96 0 -0.000280713377682
Ga96 ns96 0 ns95 0 0.000280713377682
Ca97 ns97 0 1e-012
Ca98 ns98 0 1e-012
Ra97 ns97 0 3337.13944229
Ra98 ns98 0 3337.13944229
Ga97 ns97 0 ns98 0 -0.000136130274128
Ga98 ns98 0 ns97 0 0.000136130274128
Ca99 ns99 0 1e-012
Ra99 ns99 0 1706.23387641
Ca100 ns100 0 1e-012
Ca101 ns101 0 1e-012
Ra100 ns100 0 7621.90631845
Ra101 ns101 0 7621.90631845
Ga100 ns100 0 ns101 0 -0.0010879937454
Ga101 ns101 0 ns100 0 0.0010879937454
Ca102 ns102 0 1e-012
Ra102 ns102 0 830.71161468
Ca103 ns103 0 1e-012
Ca104 ns104 0 1e-012
Ra103 ns103 0 719.308671092
Ra104 ns104 0 719.308671092
Ga103 ns103 0 ns104 0 -0.00170454762179
Ga104 ns104 0 ns103 0 0.00170454762179
Ca105 ns105 0 1e-012
Ca106 ns106 0 1e-012
Ra105 ns105 0 3864.41475837
Ra106 ns106 0 3864.41475837
Ga105 ns105 0 ns106 0 -0.0022802395707
Ga106 ns106 0 ns105 0 0.0022802395707
Ca107 ns107 0 1e-012
Ca108 ns108 0 1e-012
Ra107 ns107 0 611.871928973
Ra108 ns108 0 611.871928973
Ga107 ns107 0 ns108 0 -0.00283017154039
Ga108 ns108 0 ns107 0 0.00283017154039
Ca109 ns109 0 1e-012
Ca110 ns110 0 1e-012
Ra109 ns109 0 1050.55899359
Ra110 ns110 0 1050.55899359
Ga109 ns109 0 ns110 0 -0.00370069056382
Ga110 ns110 0 ns109 0 0.00370069056382
Ca111 ns111 0 1e-012
Ra111 ns111 0 24571769.0783
Ca112 ns112 0 1e-012
Ra112 ns112 0 2153405.51496
Ca113 ns113 0 1e-012
Ra113 ns113 0 57609.7762981
Ca114 ns114 0 1e-012
Ca115 ns115 0 1e-012
Ra114 ns114 0 52740.9387589
Ra115 ns115 0 52740.9387589
Ga114 ns114 0 ns115 0 -1.3598806823e-005
Ga115 ns115 0 ns114 0 1.3598806823e-005
Ca116 ns116 0 1e-012
Ra116 ns116 0 14439.9262207
Ca117 ns117 0 1e-012
Ca118 ns118 0 1e-012
Ra117 ns117 0 25070.6581886
Ra118 ns118 0 25070.6581886
Ga117 ns117 0 ns118 0 -0.000280713377682
Ga118 ns118 0 ns117 0 0.000280713377682
Ca119 ns119 0 1e-012
Ca120 ns120 0 1e-012
Ra119 ns119 0 3337.13944229
Ra120 ns120 0 3337.13944229
Ga119 ns119 0 ns120 0 -0.000136130274128
Ga120 ns120 0 ns119 0 0.000136130274128
Ca121 ns121 0 1e-012
Ra121 ns121 0 1706.23387641
Ca122 ns122 0 1e-012
Ca123 ns123 0 1e-012
Ra122 ns122 0 7621.90631845
Ra123 ns123 0 7621.90631845
Ga122 ns122 0 ns123 0 -0.0010879937454
Ga123 ns123 0 ns122 0 0.0010879937454
Ca124 ns124 0 1e-012
Ra124 ns124 0 830.71161468
Ca125 ns125 0 1e-012
Ca126 ns126 0 1e-012
Ra125 ns125 0 719.308671092
Ra126 ns126 0 719.308671092
Ga125 ns125 0 ns126 0 -0.00170454762179
Ga126 ns126 0 ns125 0 0.00170454762179
Ca127 ns127 0 1e-012
Ca128 ns128 0 1e-012
Ra127 ns127 0 3864.41475837
Ra128 ns128 0 3864.41475837
Ga127 ns127 0 ns128 0 -0.0022802395707
Ga128 ns128 0 ns127 0 0.0022802395707
Ca129 ns129 0 1e-012
Ca130 ns130 0 1e-012
Ra129 ns129 0 611.871928973
Ra130 ns130 0 611.871928973
Ga129 ns129 0 ns130 0 -0.00283017154039
Ga130 ns130 0 ns129 0 0.00283017154039
Ca131 ns131 0 1e-012
Ca132 ns132 0 1e-012
Ra131 ns131 0 1050.55899359
Ra132 ns132 0 1050.55899359
Ga131 ns131 0 ns132 0 -0.00370069056382
Ga132 ns132 0 ns131 0 0.00370069056382

Gb1_1 ns1 0 ni1 0 4.06971104447e-008
Gb2_1 ns2 0 ni1 0 4.6438071838e-007
Gb3_1 ns3 0 ni1 0 1.73581649549e-005
Gb4_1 ns4 0 ni1 0 2.87138554002e-005
Gb6_1 ns6 0 ni1 0 6.92524313987e-005
Gb7_1 ns7 0 ni1 0 0.000286381058944
Gb9_1 ns9 0 ni1 0 0.00036149987872
Gb11_1 ns11 0 ni1 0 0.000586086124434
Gb12_1 ns12 0 ni1 0 0.00110381519923
Gb14_1 ns14 0 ni1 0 0.0012037871896
Gb15_1 ns15 0 ni1 0 0.00283840980174
Gb17_1 ns17 0 ni1 0 0.00230960606184
Gb19_1 ns19 0 ni1 0 0.00377394156993
Gb21_1 ns21 0 ni1 0 0.00394552716232
Gb23_2 ns23 0 ni2 0 4.06971104447e-008
Gb24_2 ns24 0 ni2 0 4.6438071838e-007
Gb25_2 ns25 0 ni2 0 1.73581649549e-005
Gb26_2 ns26 0 ni2 0 2.87138554002e-005
Gb28_2 ns28 0 ni2 0 6.92524313987e-005
Gb29_2 ns29 0 ni2 0 0.000286381058944
Gb31_2 ns31 0 ni2 0 0.00036149987872
Gb33_2 ns33 0 ni2 0 0.000586086124434
Gb34_2 ns34 0 ni2 0 0.00110381519923
Gb36_2 ns36 0 ni2 0 0.0012037871896
Gb37_2 ns37 0 ni2 0 0.00283840980174
Gb39_2 ns39 0 ni2 0 0.00230960606184
Gb41_2 ns41 0 ni2 0 0.00377394156993
Gb43_2 ns43 0 ni2 0 0.00394552716232
Gb45_3 ns45 0 ni3 0 4.06971104447e-008
Gb46_3 ns46 0 ni3 0 4.6438071838e-007
Gb47_3 ns47 0 ni3 0 1.73581649549e-005
Gb48_3 ns48 0 ni3 0 2.87138554002e-005
Gb50_3 ns50 0 ni3 0 6.92524313987e-005
Gb51_3 ns51 0 ni3 0 0.000286381058944
Gb53_3 ns53 0 ni3 0 0.00036149987872
Gb55_3 ns55 0 ni3 0 0.000586086124434
Gb56_3 ns56 0 ni3 0 0.00110381519923
Gb58_3 ns58 0 ni3 0 0.0012037871896
Gb59_3 ns59 0 ni3 0 0.00283840980174
Gb61_3 ns61 0 ni3 0 0.00230960606184
Gb63_3 ns63 0 ni3 0 0.00377394156993
Gb65_3 ns65 0 ni3 0 0.00394552716232
Gb67_4 ns67 0 ni4 0 4.06971104447e-008
Gb68_4 ns68 0 ni4 0 4.6438071838e-007
Gb69_4 ns69 0 ni4 0 1.73581649549e-005
Gb70_4 ns70 0 ni4 0 2.87138554002e-005
Gb72_4 ns72 0 ni4 0 6.92524313987e-005
Gb73_4 ns73 0 ni4 0 0.000286381058944
Gb75_4 ns75 0 ni4 0 0.00036149987872
Gb77_4 ns77 0 ni4 0 0.000586086124434
Gb78_4 ns78 0 ni4 0 0.00110381519923
Gb80_4 ns80 0 ni4 0 0.0012037871896
Gb81_4 ns81 0 ni4 0 0.00283840980174
Gb83_4 ns83 0 ni4 0 0.00230960606184
Gb85_4 ns85 0 ni4 0 0.00377394156993
Gb87_4 ns87 0 ni4 0 0.00394552716232
Gb89_5 ns89 0 ni5 0 4.06971104447e-008
Gb90_5 ns90 0 ni5 0 4.6438071838e-007
Gb91_5 ns91 0 ni5 0 1.73581649549e-005
Gb92_5 ns92 0 ni5 0 2.87138554002e-005
Gb94_5 ns94 0 ni5 0 6.92524313987e-005
Gb95_5 ns95 0 ni5 0 0.000286381058944
Gb97_5 ns97 0 ni5 0 0.00036149987872
Gb99_5 ns99 0 ni5 0 0.000586086124434
Gb100_5 ns100 0 ni5 0 0.00110381519923
Gb102_5 ns102 0 ni5 0 0.0012037871896
Gb103_5 ns103 0 ni5 0 0.00283840980174
Gb105_5 ns105 0 ni5 0 0.00230960606184
Gb107_5 ns107 0 ni5 0 0.00377394156993
Gb109_5 ns109 0 ni5 0 0.00394552716232
Gb111_6 ns111 0 ni6 0 4.06971104447e-008
Gb112_6 ns112 0 ni6 0 4.6438071838e-007
Gb113_6 ns113 0 ni6 0 1.73581649549e-005
Gb114_6 ns114 0 ni6 0 2.87138554002e-005
Gb116_6 ns116 0 ni6 0 6.92524313987e-005
Gb117_6 ns117 0 ni6 0 0.000286381058944
Gb119_6 ns119 0 ni6 0 0.00036149987872
Gb121_6 ns121 0 ni6 0 0.000586086124434
Gb122_6 ns122 0 ni6 0 0.00110381519923
Gb124_6 ns124 0 ni6 0 0.0012037871896
Gb125_6 ns125 0 ni6 0 0.00283840980174
Gb127_6 ns127 0 ni6 0 0.00230960606184
Gb129_6 ns129 0 ni6 0 0.00377394156993
Gb131_6 ns131 0 ni6 0 0.00394552716232

Gc1_1 0 n2 ns1 0 0.00839581904643
Gc1_2 0 n2 ns2 0 0.00178573372218
Gc1_3 0 n2 ns3 0 -0.00163612693237
Gc1_4 0 n2 ns4 0 -2.30471168885e-005
Gc1_5 0 n2 ns5 0 -0.00122353657214
Gc1_6 0 n2 ns6 0 0.00118405601861
Gc1_7 0 n2 ns7 0 -1.65206544588e-005
Gc1_8 0 n2 ns8 0 -8.4292630052e-006
Gc1_9 0 n2 ns9 0 0.00293118593891
Gc1_10 0 n2 ns10 0 0.00207368561532
Gc1_11 0 n2 ns11 0 -0.00888792807818
Gc1_12 0 n2 ns12 0 4.14209021233e-006
Gc1_13 0 n2 ns13 0 -0.000374935453776
Gc1_14 0 n2 ns14 0 -0.00302246454739
Gc1_15 0 n2 ns15 0 -0.00492742504773
Gc1_16 0 n2 ns16 0 -0.00846858531387
Gc1_17 0 n2 ns17 0 0.000211243053332
Gc1_18 0 n2 ns18 0 -0.000152923501447
Gc1_19 0 n2 ns19 0 0.00172106398704
Gc1_20 0 n2 ns20 0 0.00541579362742
Gc1_21 0 n2 ns21 0 -0.00250296355967
Gc1_22 0 n2 ns22 0 -0.00152246472012
Gc1_23 0 n2 ns23 0 -0.000127134348621
Gc1_24 0 n2 ns24 0 1.02303301861e-005
Gc1_25 0 n2 ns25 0 -7.53616449258e-005
Gc1_26 0 n2 ns26 0 3.91549907134e-005
Gc1_27 0 n2 ns27 0 -1.19456028557e-005
Gc1_28 0 n2 ns28 0 -9.60487007306e-005
Gc1_29 0 n2 ns29 0 2.82783922594e-005
Gc1_30 0 n2 ns30 0 6.26256199071e-006
Gc1_31 0 n2 ns31 0 -0.000941323235848
Gc1_32 0 n2 ns32 0 0.00094381084515
Gc1_33 0 n2 ns33 0 -0.00305677988938
Gc1_34 0 n2 ns34 0 -4.0649827676e-005
Gc1_35 0 n2 ns35 0 -4.56884501885e-005
Gc1_36 0 n2 ns36 0 -0.00348591481413
Gc1_37 0 n2 ns37 0 0.000365270548706
Gc1_38 0 n2 ns38 0 0.00309126847431
Gc1_39 0 n2 ns39 0 0.00012191971511
Gc1_40 0 n2 ns40 0 1.78126488805e-005
Gc1_41 0 n2 ns41 0 0.000817955324882
Gc1_42 0 n2 ns42 0 0.00455382368917
Gc1_43 0 n2 ns43 0 0.000295992621247
Gc1_44 0 n2 ns44 0 -0.00122067406374
Gc1_45 0 n2 ns45 0 -0.0082817204786
Gc1_46 0 n2 ns46 0 -0.00180085842628
Gc1_47 0 n2 ns47 0 0.00173083674487
Gc1_48 0 n2 ns48 0 5.27425197606e-006
Gc1_49 0 n2 ns49 0 0.00129353705093
Gc1_50 0 n2 ns50 0 -0.00120269293622
Gc1_51 0 n2 ns51 0 -4.44174801015e-006
Gc1_52 0 n2 ns52 0 -3.1071462161e-005
Gc1_53 0 n2 ns53 0 -0.00498678856548
Gc1_54 0 n2 ns54 0 -0.00109258070682
Gc1_55 0 n2 ns55 0 0.00245302628511
Gc1_56 0 n2 ns56 0 -7.02021557338e-005
Gc1_57 0 n2 ns57 0 0.000286109470529
Gc1_58 0 n2 ns58 0 0.0067368284476
Gc1_59 0 n2 ns59 0 0.00409490478167
Gc1_60 0 n2 ns60 0 0.00793707521813
Gc1_61 0 n2 ns61 0 -0.000455493114531
Gc1_62 0 n2 ns62 0 -5.48021524222e-007
Gc1_63 0 n2 ns63 0 -0.00401120840727
Gc1_64 0 n2 ns64 0 -0.00480683543816
Gc1_65 0 n2 ns65 0 -0.000465887424057
Gc1_66 0 n2 ns66 0 0.00501439683351
Gc1_67 0 n2 ns67 0 -0.00813996453247
Gc1_68 0 n2 ns68 0 -0.00178511640618
Gc1_69 0 n2 ns69 0 0.0018447521955
Gc1_70 0 n2 ns70 0 1.7360079442e-005
Gc1_71 0 n2 ns71 0 0.00129816177868
Gc1_72 0 n2 ns72 0 -0.00118605030156
Gc1_73 0 n2 ns73 0 2.66554625035e-005
Gc1_74 0 n2 ns74 0 3.24571772633e-006
Gc1_75 0 n2 ns75 0 -0.00369007137326
Gc1_76 0 n2 ns76 0 -0.00242574229421
Gc1_77 0 n2 ns77 0 0.00491820781682
Gc1_78 0 n2 ns78 0 3.5573451046e-005
Gc1_79 0 n2 ns79 0 0.000372244628122
Gc1_80 0 n2 ns80 0 0.0141177463183
Gc1_81 0 n2 ns81 0 -0.00756279830288
Gc1_82 0 n2 ns82 0 -0.00667671344314
Gc1_83 0 n2 ns83 0 0.000265532955263
Gc1_84 0 n2 ns84 0 -0.000172538557117
Gc1_85 0 n2 ns85 0 -0.000182739353196
Gc1_86 0 n2 ns86 0 0.00578920258667
Gc1_87 0 n2 ns87 0 0.00355555511964
Gc1_88 0 n2 ns88 0 0.00110175671774
Gc1_89 0 n2 ns89 0 3.17914664648e-005
Gc1_90 0 n2 ns90 0 2.12558589726e-007
Gc1_91 0 n2 ns91 0 -0.000229607686775
Gc1_92 0 n2 ns92 0 2.67532209963e-007
Gc1_93 0 n2 ns93 0 -3.41984482863e-005
Gc1_94 0 n2 ns94 0 5.0855664628e-005
Gc1_95 0 n2 ns95 0 9.10424866731e-007
Gc1_96 0 n2 ns96 0 2.45124345027e-005
Gc1_97 0 n2 ns97 0 0.00280041067209
Gc1_98 0 n2 ns98 0 -0.00106684682113
Gc1_99 0 n2 ns99 0 0.0116212646354
Gc1_100 0 n2 ns100 0 0.000115517769533
Gc1_101 0 n2 ns101 0 0.000134955960835
Gc1_102 0 n2 ns102 0 -0.00596096959736
Gc1_103 0 n2 ns103 0 -0.0002296853928
Gc1_104 0 n2 ns104 0 0.00355922179352
Gc1_105 0 n2 ns105 0 0.000122659903861
Gc1_106 0 n2 ns106 0 0.00015535647447
Gc1_107 0 n2 ns107 0 -0.00337096010514
Gc1_108 0 n2 ns108 0 0.00547816665391
Gc1_109 0 n2 ns109 0 0.0005619962343
Gc1_110 0 n2 ns110 0 -0.00105556102871
Gc1_111 0 n2 ns111 0 0.00825579288641
Gc1_112 0 n2 ns112 0 0.00176405238594
Gc1_113 0 n2 ns113 0 -0.00152238201518
Gc1_114 0 n2 ns114 0 -4.91654642406e-006
Gc1_115 0 n2 ns115 0 -0.00122042935939
Gc1_116 0 n2 ns116 0 0.00112326750762
Gc1_117 0 n2 ns117 0 -3.37247918823e-005
Gc1_118 0 n2 ns118 0 2.6445160638e-006
Gc1_119 0 n2 ns119 0 0.00356591980913
Gc1_120 0 n2 ns120 0 0.00186264047795
Gc1_121 0 n2 ns121 0 -0.00493089089475
Gc1_122 0 n2 ns122 0 -4.18800772166e-005
Gc1_123 0 n2 ns123 0 -0.000366697424824
Gc1_124 0 n2 ns124 0 -0.0152156745359
Gc1_125 0 n2 ns125 0 0.00803956928502
Gc1_126 0 n2 ns126 0 0.00612857101269
Gc1_127 0 n2 ns127 0 -0.000263892752528
Gc1_128 0 n2 ns128 0 0.000185237976029
Gc1_129 0 n2 ns129 0 -0.000354045823749
Gc1_130 0 n2 ns130 0 -0.00626565399491
Gc1_131 0 n2 ns131 0 -0.00357766571687
Gc1_132 0 n2 ns132 0 -0.000555982610381
Gd1_1 0 n2 ni1 0 -0.00409686080929
Gd1_2 0 n2 ni2 0 -0.00053344105145
Gd1_3 0 n2 ni3 0 -0.000327441444695
Gd1_4 0 n2 ni4 0 0.000861434741877
Gd1_5 0 n2 ni5 0 -0.00148132207187
Gd1_6 0 n2 ni6 0 -0.00109518432293
Gc2_1 0 n4 ns1 0 -0.000185164680833
Gc2_2 0 n4 ns2 0 1.9715342558e-005
Gc2_3 0 n4 ns3 0 -7.61904487679e-005
Gc2_4 0 n4 ns4 0 4.16632233845e-005
Gc2_5 0 n4 ns5 0 -1.45651521205e-005
Gc2_6 0 n4 ns6 0 -9.85884444229e-005
Gc2_7 0 n4 ns7 0 2.8316437851e-005
Gc2_8 0 n4 ns8 0 6.37712629835e-006
Gc2_9 0 n4 ns9 0 -0.000950605477576
Gc2_10 0 n4 ns10 0 0.000936023380187
Gc2_11 0 n4 ns11 0 -0.00305062534008
Gc2_12 0 n4 ns12 0 -4.04452945732e-005
Gc2_13 0 n4 ns13 0 -4.70493433555e-005
Gc2_14 0 n4 ns14 0 -0.00347516149718
Gc2_15 0 n4 ns15 0 0.000376777371404
Gc2_16 0 n4 ns16 0 0.00308016373333
Gc2_17 0 n4 ns17 0 0.000123476978568
Gc2_18 0 n4 ns18 0 1.71641113021e-005
Gc2_19 0 n4 ns19 0 0.000842672677806
Gc2_20 0 n4 ns20 0 0.0045815702885
Gc2_21 0 n4 ns21 0 0.000285295191775
Gc2_22 0 n4 ns22 0 -0.00121762439177
Gc2_23 0 n4 ns23 0 0.000290566021287
Gc2_24 0 n4 ns24 0 -4.41811952073e-006
Gc2_25 0 n4 ns25 0 -0.000124622827841
Gc2_26 0 n4 ns26 0 1.70324782821e-005
Gc2_27 0 n4 ns27 0 -5.67971781947e-005
Gc2_28 0 n4 ns28 0 0.000132173108758
Gc2_29 0 n4 ns29 0 -6.34251065511e-005
Gc2_30 0 n4 ns30 0 7.31915319204e-005
Gc2_31 0 n4 ns31 0 -0.000985244555133
Gc2_32 0 n4 ns32 0 -4.94518199326e-005
Gc2_33 0 n4 ns33 0 -0.00353687225119
Gc2_34 0 n4 ns34 0 -1.06968962556e-005
Gc2_35 0 n4 ns35 0 -3.66098325403e-006
Gc2_36 0 n4 ns36 0 0.00548038336857
Gc2_37 0 n4 ns37 0 -0.00230262181016
Gc2_38 0 n4 ns38 0 -0.00222944681996
Gc2_39 0 n4 ns39 0 3.67687511286e-005
Gc2_40 0 n4 ns40 0 4.03360218644e-005
Gc2_41 0 n4 ns41 0 -0.00973812736034
Gc2_42 0 n4 ns42 0 -0.00533835885146
Gc2_43 0 n4 ns43 0 -0.00186724520119
Gc2_44 0 n4 ns44 0 -0.00047651832924
Gc2_45 0 n4 ns45 0 -0.000176135528808
Gc2_46 0 n4 ns46 0 2.03498734025e-005
Gc2_47 0 n4 ns47 0 -0.000100079458303
Gc2_48 0 n4 ns48 0 3.02876333754e-005
Gc2_49 0 n4 ns49 0 -3.6897680495e-005
Gc2_50 0 n4 ns50 0 -6.6252974071e-005
Gc2_51 0 n4 ns51 0 8.47603693153e-005
Gc2_52 0 n4 ns52 0 -4.45237617128e-005
Gc2_53 0 n4 ns53 0 -0.000939212610618
Gc2_54 0 n4 ns54 0 0.00104581269851
Gc2_55 0 n4 ns55 0 -0.00322879608377
Gc2_56 0 n4 ns56 0 1.87510101122e-005
Gc2_57 0 n4 ns57 0 5.35574058904e-005
Gc2_58 0 n4 ns58 0 -0.00325007246892
Gc2_59 0 n4 ns59 0 8.38185765766e-005
Gc2_60 0 n4 ns60 0 0.00356435012882
Gc2_61 0 n4 ns61 0 -0.000177397918976
Gc2_62 0 n4 ns62 0 -0.000118467118476
Gc2_63 0 n4 ns63 0 0.00119644107669
Gc2_64 0 n4 ns64 0 0.00385578626548
Gc2_65 0 n4 ns65 0 0.000229470208615
Gc2_66 0 n4 ns66 0 -0.000982857959888
Gc2_67 0 n4 ns67 0 -7.18054397352e-005
Gc2_68 0 n4 ns68 0 8.59067988065e-006
Gc2_69 0 n4 ns69 0 -4.66933964243e-005
Gc2_70 0 n4 ns70 0 1.68007161583e-005
Gc2_71 0 n4 ns71 0 -0.000137878115341
Gc2_72 0 n4 ns72 0 5.82695736434e-005
Gc2_73 0 n4 ns73 0 -2.8562924032e-005
Gc2_74 0 n4 ns74 0 1.29145233294e-005
Gc2_75 0 n4 ns75 0 9.47487171037e-006
Gc2_76 0 n4 ns76 0 -0.000252804085186
Gc2_77 0 n4 ns77 0 -0.000278972181276
Gc2_78 0 n4 ns78 0 4.72170443931e-005
Gc2_79 0 n4 ns79 0 5.11461178094e-005
Gc2_80 0 n4 ns80 0 0.000350279578772
Gc2_81 0 n4 ns81 0 -3.62431285579e-005
Gc2_82 0 n4 ns82 0 -0.000303148554451
Gc2_83 0 n4 ns83 0 0.000142536341834
Gc2_84 0 n4 ns84 0 1.64043418305e-005
Gc2_85 0 n4 ns85 0 -0.000126939667063
Gc2_86 0 n4 ns86 0 0.000223043503324
Gc2_87 0 n4 ns87 0 -5.40031110492e-005
Gc2_88 0 n4 ns88 0 0.000210600550508
Gc2_89 0 n4 ns89 0 4.10480289324e-005
Gc2_90 0 n4 ns90 0 1.63510487878e-005
Gc2_91 0 n4 ns91 0 -0.000369717269878
Gc2_92 0 n4 ns92 0 -2.30193943776e-005
Gc2_93 0 n4 ns93 0 -3.55883820009e-005
Gc2_94 0 n4 ns94 0 8.15570116786e-005
Gc2_95 0 n4 ns95 0 -4.98516520106e-005
Gc2_96 0 n4 ns96 0 -8.01072813655e-006
Gc2_97 0 n4 ns97 0 0.00330348587048
Gc2_98 0 n4 ns98 0 -0.00107914146118
Gc2_99 0 n4 ns99 0 0.0105968840339
Gc2_100 0 n4 ns100 0 3.20179649265e-005
Gc2_101 0 n4 ns101 0 5.22821895065e-006
Gc2_102 0 n4 ns102 0 -0.00389044749463
Gc2_103 0 n4 ns103 0 0.00182274258113
Gc2_104 0 n4 ns104 0 0.00135819637709
Gc2_105 0 n4 ns105 0 5.01354432701e-006
Gc2_106 0 n4 ns106 0 8.20835875761e-005
Gc2_107 0 n4 ns107 0 0.00353926551624
Gc2_108 0 n4 ns108 0 0.00775319148266
Gc2_109 0 n4 ns109 0 -0.000976163383926
Gc2_110 0 n4 ns110 0 0.00420756637688
Gc2_111 0 n4 ns111 0 -8.15203422701e-005
Gc2_112 0 n4 ns112 0 8.1051856842e-006
Gc2_113 0 n4 ns113 0 -3.94426302045e-005
Gc2_114 0 n4 ns114 0 1.99297407868e-005
Gc2_115 0 n4 ns115 0 -0.0001277213384
Gc2_116 0 n4 ns116 0 5.27602674825e-005
Gc2_117 0 n4 ns117 0 2.71923961942e-005
Gc2_118 0 n4 ns118 0 -3.54628110709e-005
Gc2_119 0 n4 ns119 0 -8.50014713775e-005
Gc2_120 0 n4 ns120 0 -0.000298914714436
Gc2_121 0 n4 ns121 0 0.000353313242519
Gc2_122 0 n4 ns122 0 -4.43921182385e-005
Gc2_123 0 n4 ns123 0 -4.70040917436e-005
Gc2_124 0 n4 ns124 0 -0.000402544634767
Gc2_125 0 n4 ns125 0 -0.000250379667199
Gc2_126 0 n4 ns126 0 0.000435653597446
Gc2_127 0 n4 ns127 0 -0.000147293738135
Gc2_128 0 n4 ns128 0 -1.5215053571e-005
Gc2_129 0 n4 ns129 0 -0.000192202319238
Gc2_130 0 n4 ns130 0 -7.31258326164e-005
Gc2_131 0 n4 ns131 0 -0.000228021584488
Gc2_132 0 n4 ns132 0 -0.00030432525137
Gd2_1 0 n4 ni1 0 -0.000519776852423
Gd2_2 0 n4 ni2 0 -0.00516015688034
Gd2_3 0 n4 ni3 0 -0.000466944513626
Gd2_4 0 n4 ni4 0 -5.47741502487e-006
Gd2_5 0 n4 ni5 0 0.000139521551134
Gd2_6 0 n4 ni6 0 -0.000235396674416
Gc3_1 0 n6 ns1 0 -0.00827161143463
Gc3_2 0 n6 ns2 0 -0.00180116989979
Gc3_3 0 n6 ns3 0 0.00172581963611
Gc3_4 0 n6 ns4 0 3.9726717705e-006
Gc3_5 0 n6 ns5 0 0.00128888975689
Gc3_6 0 n6 ns6 0 -0.00119649247665
Gc3_7 0 n6 ns7 0 -4.30849289457e-006
Gc3_8 0 n6 ns8 0 -3.09516163825e-005
Gc3_9 0 n6 ns9 0 -0.00495123995173
Gc3_10 0 n6 ns10 0 -0.00108284072875
Gc3_11 0 n6 ns11 0 0.00238033526837
Gc3_12 0 n6 ns12 0 -7.16009400497e-005
Gc3_13 0 n6 ns13 0 0.000289093771942
Gc3_14 0 n6 ns14 0 0.0068223585501
Gc3_15 0 n6 ns15 0 0.00413121129317
Gc3_16 0 n6 ns16 0 0.00796882344137
Gc3_17 0 n6 ns17 0 -0.000463040049954
Gc3_18 0 n6 ns18 0 -1.37852458826e-007
Gc3_19 0 n6 ns19 0 -0.00403740996606
Gc3_20 0 n6 ns20 0 -0.00476931800493
Gc3_21 0 n6 ns21 0 -0.000465737851427
Gc3_22 0 n6 ns22 0 0.0049987849822
Gc3_23 0 n6 ns23 0 -0.0001296186162
Gc3_24 0 n6 ns24 0 1.20011455864e-005
Gc3_25 0 n6 ns25 0 -0.000117766317833
Gc3_26 0 n6 ns26 0 2.62980770356e-005
Gc3_27 0 n6 ns27 0 -5.27492315197e-005
Gc3_28 0 n6 ns28 0 -4.69837908616e-005
Gc3_29 0 n6 ns29 0 8.43433217052e-005
Gc3_30 0 n6 ns30 0 -4.39972127617e-005
Gc3_31 0 n6 ns31 0 -0.00085950028412
Gc3_32 0 n6 ns32 0 0.00107800401736
Gc3_33 0 n6 ns33 0 -0.00336480599508
Gc3_34 0 n6 ns34 0 1.94594312205e-005
Gc3_35 0 n6 ns35 0 5.33149130486e-005
Gc3_36 0 n6 ns36 0 -0.00315393337659
Gc3_37 0 n6 ns37 0 7.89968232968e-005
Gc3_38 0 n6 ns38 0 0.0036100190617
Gc3_39 0 n6 ns39 0 -0.000177951078668
Gc3_40 0 n6 ns40 0 -0.000118601465678
Gc3_41 0 n6 ns41 0 0.00113225000999
Gc3_42 0 n6 ns42 0 0.00384391145971
Gc3_43 0 n6 ns43 0 0.000249322379222
Gc3_44 0 n6 ns44 0 -0.00100756442435
Gc3_45 0 n6 ns45 0 0.00847918099277
Gc3_46 0 n6 ns46 0 0.00178409000529
Gc3_47 0 n6 ns47 0 -0.00164181952037
Gc3_48 0 n6 ns48 0 -1.93985560504e-005
Gc3_49 0 n6 ns49 0 -0.00122618235211
Gc3_50 0 n6 ns50 0 0.00119304268081
Gc3_51 0 n6 ns51 0 -0.000110694159664
Gc3_52 0 n6 ns52 0 2.03175440978e-006
Gc3_53 0 n6 ns53 0 0.00319698880407
Gc3_54 0 n6 ns54 0 0.00214832868889
Gc3_55 0 n6 ns55 0 -0.00987962247748
Gc3_56 0 n6 ns56 0 0.000105311936544
Gc3_57 0 n6 ns57 0 -0.00021089319523
Gc3_58 0 n6 ns58 0 -0.00181683665021
Gc3_59 0 n6 ns59 0 -0.00248189385644
Gc3_60 0 n6 ns60 0 -0.00927498681193
Gc3_61 0 n6 ns61 0 0.000675658306577
Gc3_62 0 n6 ns62 0 0.000433010428276
Gc3_63 0 n6 ns63 0 0.00276781651987
Gc3_64 0 n6 ns64 0 0.0067373071468
Gc3_65 0 n6 ns65 0 -0.003184084563
Gc3_66 0 n6 ns66 0 -0.000766612328198
Gc3_67 0 n6 ns67 0 0.00817889918819
Gc3_68 0 n6 ns68 0 0.00176985168125
Gc3_69 0 n6 ns69 0 -0.00148949064572
Gc3_70 0 n6 ns70 0 -4.63315564552e-006
Gc3_71 0 n6 ns71 0 -0.00119288214322
Gc3_72 0 n6 ns72 0 0.00111422413898
Gc3_73 0 n6 ns73 0 1.0127634685e-005
Gc3_74 0 n6 ns74 0 8.13153214477e-006
Gc3_75 0 n6 ns75 0 0.00336452882223
Gc3_76 0 n6 ns76 0 0.00188913386039
Gc3_77 0 n6 ns77 0 -0.00487800951036
Gc3_78 0 n6 ns78 0 4.19532632832e-005
Gc3_79 0 n6 ns79 0 -0.000295053044469
Gc3_80 0 n6 ns80 0 -0.0137784241693
Gc3_81 0 n6 ns81 0 0.00698994953933
Gc3_82 0 n6 ns82 0 0.00688550950905
Gc3_83 0 n6 ns83 0 -0.0005409819325
Gc3_84 0 n6 ns84 0 -1.76949564851e-005
Gc3_85 0 n6 ns85 0 0.000516847265914
Gc3_86 0 n6 ns86 0 -0.00557394679278
Gc3_87 0 n6 ns87 0 -0.00339540370627
Gc3_88 0 n6 ns88 0 -0.0011838675096
Gc3_89 0 n6 ns89 0 2.26608098621e-005
Gc3_90 0 n6 ns90 0 4.2694012419e-006
Gc3_91 0 n6 ns91 0 -0.000268995813717
Gc3_92 0 n6 ns92 0 6.28276138703e-006
Gc3_93 0 n6 ns93 0 -6.04971545582e-005
Gc3_94 0 n6 ns94 0 3.63903281179e-005
Gc3_95 0 n6 ns95 0 4.00631946303e-005
Gc3_96 0 n6 ns96 0 4.24197680423e-005
Gc3_97 0 n6 ns97 0 0.00274878569904
Gc3_98 0 n6 ns98 0 -0.00122706291177
Gc3_99 0 n6 ns99 0 0.0121623485741
Gc3_100 0 n6 ns100 0 -6.54308643532e-005
Gc3_101 0 n6 ns101 0 -0.000118466162112
Gc3_102 0 n6 ns102 0 -0.00735876514436
Gc3_103 0 n6 ns103 0 -0.00142288906009
Gc3_104 0 n6 ns104 0 0.00301211400615
Gc3_105 0 n6 ns105 0 -4.21032966475e-005
Gc3_106 0 n6 ns106 0 -0.000314570352982
Gc3_107 0 n6 ns107 0 -0.00341342231789
Gc3_108 0 n6 ns108 0 0.00548452892161
Gc3_109 0 n6 ns109 0 0.00104803735125
Gc3_110 0 n6 ns110 0 -0.00123498935156
Gc3_111 0 n6 ns111 0 -0.00817832201166
Gc3_112 0 n6 ns112 0 -0.00178381168347
Gc3_113 0 n6 ns113 0 0.00185373167124
Gc3_114 0 n6 ns114 0 1.19249304536e-005
Gc3_115 0 n6 ns115 0 0.00129630380538
Gc3_116 0 n6 ns116 0 -0.00118435158249
Gc3_117 0 n6 ns117 0 -1.82613872234e-005
Gc3_118 0 n6 ns118 0 1.72715348687e-005
Gc3_119 0 n6 ns119 0 -0.00372352504192
Gc3_120 0 n6 ns120 0 -0.00255310724864
Gc3_121 0 n6 ns121 0 0.00517096124183
Gc3_122 0 n6 ns122 0 -3.47312721904e-005
Gc3_123 0 n6 ns123 0 0.000290855639231
Gc3_124 0 n6 ns124 0 0.0141799258004
Gc3_125 0 n6 ns125 0 -0.00753126257587
Gc3_126 0 n6 ns126 0 -0.00646667229132
Gc3_127 0 n6 ns127 0 0.000554662421427
Gc3_128 0 n6 ns128 0 -4.65626450127e-006
Gc3_129 0 n6 ns129 0 -0.000505811790607
Gc3_130 0 n6 ns130 0 0.00605420772679
Gc3_131 0 n6 ns131 0 0.0033133051878