**************************************************
* Manufacturer:           Würth Elektronik
* Kinds:                  LAN Transformer
* Matchcode:              WE-LAN
* Library Type:           Pspice
* Version:                rev25a
* Created/modified by:    Ella      
* Date and Time:          2025-03-27
* Team:                   eiSos EDA Service  
* Contact:                libraries@we-online.com
**************************************************
* Copyright(C) 2025 Würth Elektronik eiSos GmbH & Co. KG
* All Rights Reserved.
**************************************************
* Disclaimer: While Würth Elektronik eiSos has made every reasonable effort to ensure the accuracy
* of the simulation models provided, Würth Elektronik eiSos does not guarantee the exemption of error on
* the simulation models, nor does Würth Elektronik eiSos guarantee that the simulation model is current.
* Würth Elektronik eiSos reserves the right to make any adjustments at any time without notice.
* Würth Elektronik eiSos expressly disclaims all implied warranties regarding this simulation model.
**************************************************
***********************************************************************************
********************************7490100110*****************************************
***********************************************************************************
.subckt 7490100110 1 2 3 4 5 6
Vam1 1 n2 dc 0
Rport1 n2 0 50
Vam2 2 n4 dc 0
Rport2 n4 0 50
Vam3 3 n6 dc 0
Rport3 n6 0 50
Vam4 4 n8 dc 0
Rport4 n8 0 50
Vam5 5 n10 dc 0
Rport5 n10 0 50
Vam6 6 n12 dc 0
Rport6 n12 0 50

Fi1 0 ni1 Vam1 50
Gi1 0 ni1 1 0 1
Rt1 ni1 0 1
Fi2 0 ni2 Vam2 50
Gi2 0 ni2 2 0 1
Rt2 ni2 0 1
Fi3 0 ni3 Vam3 50
Gi3 0 ni3 3 0 1
Rt3 ni3 0 1
Fi4 0 ni4 Vam4 50
Gi4 0 ni4 4 0 1
Rt4 ni4 0 1
Fi5 0 ni5 Vam5 50
Gi5 0 ni5 5 0 1
Rt5 ni5 0 1
Fi6 0 ni6 Vam6 50
Gi6 0 ni6 6 0 1
Rt6 ni6 0 1

Ca1 ns1 0 1e-012
Ra1 ns1 0 451561.540781
Ca2 ns2 0 1e-012
Ca3 ns3 0 1e-012
Ra2 ns2 0 263485.286112
Ra3 ns3 0 263485.286112
Ga2 ns2 0 ns3 0 -2.85921429773e-006
Ga3 ns3 0 ns2 0 2.85921429773e-006
Ca4 ns4 0 1e-012
Ra4 ns4 0 28990.2593672
Ca5 ns5 0 1e-012
Ra5 ns5 0 7787.58249599
Ca6 ns6 0 1e-012
Ra6 ns6 0 1445.3005613
Ca7 ns7 0 1e-012
Ca8 ns8 0 1e-012
Ra7 ns7 0 919.162760435
Ra8 ns8 0 919.162760435
Ga7 ns7 0 ns8 0 -0.000969654052353
Ga8 ns8 0 ns7 0 0.000969654052353
Ca9 ns9 0 1e-012
Ca10 ns10 0 1e-012
Ra9 ns9 0 838.448275092
Ra10 ns10 0 838.448275092
Ga9 ns9 0 ns10 0 -0.0017439548282
Ga10 ns10 0 ns9 0 0.0017439548282
Ca11 ns11 0 1e-012
Ca12 ns12 0 1e-012
Ra11 ns11 0 1455.13554301
Ra12 ns12 0 1455.13554301
Ga11 ns11 0 ns12 0 -0.00275169584183
Ga12 ns12 0 ns11 0 0.00275169584183
Ca13 ns13 0 1e-012
Ca14 ns14 0 1e-012
Ra13 ns13 0 955.378880661
Ra14 ns14 0 955.378880661
Ga13 ns13 0 ns14 0 -0.00337873110126
Ga14 ns14 0 ns13 0 0.00337873110126
Ca15 ns15 0 1e-012
Ra15 ns15 0 451561.540781
Ca16 ns16 0 1e-012
Ca17 ns17 0 1e-012
Ra16 ns16 0 263485.286112
Ra17 ns17 0 263485.286112
Ga16 ns16 0 ns17 0 -2.85921429773e-006
Ga17 ns17 0 ns16 0 2.85921429773e-006
Ca18 ns18 0 1e-012
Ra18 ns18 0 28990.2593672
Ca19 ns19 0 1e-012
Ra19 ns19 0 7787.58249599
Ca20 ns20 0 1e-012
Ra20 ns20 0 1445.3005613
Ca21 ns21 0 1e-012
Ca22 ns22 0 1e-012
Ra21 ns21 0 919.162760435
Ra22 ns22 0 919.162760435
Ga21 ns21 0 ns22 0 -0.000969654052353
Ga22 ns22 0 ns21 0 0.000969654052353
Ca23 ns23 0 1e-012
Ca24 ns24 0 1e-012
Ra23 ns23 0 838.448275092
Ra24 ns24 0 838.448275092
Ga23 ns23 0 ns24 0 -0.0017439548282
Ga24 ns24 0 ns23 0 0.0017439548282
Ca25 ns25 0 1e-012
Ca26 ns26 0 1e-012
Ra25 ns25 0 1455.13554301
Ra26 ns26 0 1455.13554301
Ga25 ns25 0 ns26 0 -0.00275169584183
Ga26 ns26 0 ns25 0 0.00275169584183
Ca27 ns27 0 1e-012
Ca28 ns28 0 1e-012
Ra27 ns27 0 955.378880661
Ra28 ns28 0 955.378880661
Ga27 ns27 0 ns28 0 -0.00337873110126
Ga28 ns28 0 ns27 0 0.00337873110126
Ca29 ns29 0 1e-012
Ra29 ns29 0 451561.540781
Ca30 ns30 0 1e-012
Ca31 ns31 0 1e-012
Ra30 ns30 0 263485.286112
Ra31 ns31 0 263485.286112
Ga30 ns30 0 ns31 0 -2.85921429773e-006
Ga31 ns31 0 ns30 0 2.85921429773e-006
Ca32 ns32 0 1e-012
Ra32 ns32 0 28990.2593672
Ca33 ns33 0 1e-012
Ra33 ns33 0 7787.58249599
Ca34 ns34 0 1e-012
Ra34 ns34 0 1445.3005613
Ca35 ns35 0 1e-012
Ca36 ns36 0 1e-012
Ra35 ns35 0 919.162760435
Ra36 ns36 0 919.162760435
Ga35 ns35 0 ns36 0 -0.000969654052353
Ga36 ns36 0 ns35 0 0.000969654052353
Ca37 ns37 0 1e-012
Ca38 ns38 0 1e-012
Ra37 ns37 0 838.448275092
Ra38 ns38 0 838.448275092
Ga37 ns37 0 ns38 0 -0.0017439548282
Ga38 ns38 0 ns37 0 0.0017439548282
Ca39 ns39 0 1e-012
Ca40 ns40 0 1e-012
Ra39 ns39 0 1455.13554301
Ra40 ns40 0 1455.13554301
Ga39 ns39 0 ns40 0 -0.00275169584183
Ga40 ns40 0 ns39 0 0.00275169584183
Ca41 ns41 0 1e-012
Ca42 ns42 0 1e-012
Ra41 ns41 0 955.378880661
Ra42 ns42 0 955.378880661
Ga41 ns41 0 ns42 0 -0.00337873110126
Ga42 ns42 0 ns41 0 0.00337873110126
Ca43 ns43 0 1e-012
Ra43 ns43 0 451561.540781
Ca44 ns44 0 1e-012
Ca45 ns45 0 1e-012
Ra44 ns44 0 263485.286112
Ra45 ns45 0 263485.286112
Ga44 ns44 0 ns45 0 -2.85921429773e-006
Ga45 ns45 0 ns44 0 2.85921429773e-006
Ca46 ns46 0 1e-012
Ra46 ns46 0 28990.2593672
Ca47 ns47 0 1e-012
Ra47 ns47 0 7787.58249599
Ca48 ns48 0 1e-012
Ra48 ns48 0 1445.3005613
Ca49 ns49 0 1e-012
Ca50 ns50 0 1e-012
Ra49 ns49 0 919.162760435
Ra50 ns50 0 919.162760435
Ga49 ns49 0 ns50 0 -0.000969654052353
Ga50 ns50 0 ns49 0 0.000969654052353
Ca51 ns51 0 1e-012
Ca52 ns52 0 1e-012
Ra51 ns51 0 838.448275092
Ra52 ns52 0 838.448275092
Ga51 ns51 0 ns52 0 -0.0017439548282
Ga52 ns52 0 ns51 0 0.0017439548282
Ca53 ns53 0 1e-012
Ca54 ns54 0 1e-012
Ra53 ns53 0 1455.13554301
Ra54 ns54 0 1455.13554301
Ga53 ns53 0 ns54 0 -0.00275169584183
Ga54 ns54 0 ns53 0 0.00275169584183
Ca55 ns55 0 1e-012
Ca56 ns56 0 1e-012
Ra55 ns55 0 955.378880661
Ra56 ns56 0 955.378880661
Ga55 ns55 0 ns56 0 -0.00337873110126
Ga56 ns56 0 ns55 0 0.00337873110126
Ca57 ns57 0 1e-012
Ra57 ns57 0 451561.540781
Ca58 ns58 0 1e-012
Ca59 ns59 0 1e-012
Ra58 ns58 0 263485.286112
Ra59 ns59 0 263485.286112
Ga58 ns58 0 ns59 0 -2.85921429773e-006
Ga59 ns59 0 ns58 0 2.85921429773e-006
Ca60 ns60 0 1e-012
Ra60 ns60 0 28990.2593672
Ca61 ns61 0 1e-012
Ra61 ns61 0 7787.58249599
Ca62 ns62 0 1e-012
Ra62 ns62 0 1445.3005613
Ca63 ns63 0 1e-012
Ca64 ns64 0 1e-012
Ra63 ns63 0 919.162760435
Ra64 ns64 0 919.162760435
Ga63 ns63 0 ns64 0 -0.000969654052353
Ga64 ns64 0 ns63 0 0.000969654052353
Ca65 ns65 0 1e-012
Ca66 ns66 0 1e-012
Ra65 ns65 0 838.448275092
Ra66 ns66 0 838.448275092
Ga65 ns65 0 ns66 0 -0.0017439548282
Ga66 ns66 0 ns65 0 0.0017439548282
Ca67 ns67 0 1e-012
Ca68 ns68 0 1e-012
Ra67 ns67 0 1455.13554301
Ra68 ns68 0 1455.13554301
Ga67 ns67 0 ns68 0 -0.00275169584183
Ga68 ns68 0 ns67 0 0.00275169584183
Ca69 ns69 0 1e-012
Ca70 ns70 0 1e-012
Ra69 ns69 0 955.378880661
Ra70 ns70 0 955.378880661
Ga69 ns69 0 ns70 0 -0.00337873110126
Ga70 ns70 0 ns69 0 0.00337873110126
Ca71 ns71 0 1e-012
Ra71 ns71 0 451561.540781
Ca72 ns72 0 1e-012
Ca73 ns73 0 1e-012
Ra72 ns72 0 263485.286112
Ra73 ns73 0 263485.286112
Ga72 ns72 0 ns73 0 -2.85921429773e-006
Ga73 ns73 0 ns72 0 2.85921429773e-006
Ca74 ns74 0 1e-012
Ra74 ns74 0 28990.2593672
Ca75 ns75 0 1e-012
Ra75 ns75 0 7787.58249599
Ca76 ns76 0 1e-012
Ra76 ns76 0 1445.3005613
Ca77 ns77 0 1e-012
Ca78 ns78 0 1e-012
Ra77 ns77 0 919.162760435
Ra78 ns78 0 919.162760435
Ga77 ns77 0 ns78 0 -0.000969654052353
Ga78 ns78 0 ns77 0 0.000969654052353
Ca79 ns79 0 1e-012
Ca80 ns80 0 1e-012
Ra79 ns79 0 838.448275092
Ra80 ns80 0 838.448275092
Ga79 ns79 0 ns80 0 -0.0017439548282
Ga80 ns80 0 ns79 0 0.0017439548282
Ca81 ns81 0 1e-012
Ca82 ns82 0 1e-012
Ra81 ns81 0 1455.13554301
Ra82 ns82 0 1455.13554301
Ga81 ns81 0 ns82 0 -0.00275169584183
Ga82 ns82 0 ns81 0 0.00275169584183
Ca83 ns83 0 1e-012
Ca84 ns84 0 1e-012
Ra83 ns83 0 955.378880661
Ra84 ns84 0 955.378880661
Ga83 ns83 0 ns84 0 -0.00337873110126
Ga84 ns84 0 ns83 0 0.00337873110126

Gb1_1 ns1 0 ni1 0 2.21453757614e-006
Gb2_1 ns2 0 ni1 0 5.94929859159e-006
Gb4_1 ns4 0 ni1 0 3.44943447153e-005
Gb5_1 ns5 0 ni1 0 0.000128409554636
Gb6_1 ns6 0 ni1 0 0.000691897607168
Gb7_1 ns7 0 ni1 0 0.00195217006577
Gb9_1 ns9 0 ni1 0 0.00255962056045
Gb11_1 ns11 0 ni1 0 0.00292332563325
Gb13_1 ns13 0 ni1 0 0.00370299238458
Gb15_2 ns15 0 ni2 0 2.21453757614e-006
Gb16_2 ns16 0 ni2 0 5.94929859159e-006
Gb18_2 ns18 0 ni2 0 3.44943447153e-005
Gb19_2 ns19 0 ni2 0 0.000128409554636
Gb20_2 ns20 0 ni2 0 0.000691897607168
Gb21_2 ns21 0 ni2 0 0.00195217006577
Gb23_2 ns23 0 ni2 0 0.00255962056045
Gb25_2 ns25 0 ni2 0 0.00292332563325
Gb27_2 ns27 0 ni2 0 0.00370299238458
Gb29_3 ns29 0 ni3 0 2.21453757614e-006
Gb30_3 ns30 0 ni3 0 5.94929859159e-006
Gb32_3 ns32 0 ni3 0 3.44943447153e-005
Gb33_3 ns33 0 ni3 0 0.000128409554636
Gb34_3 ns34 0 ni3 0 0.000691897607168
Gb35_3 ns35 0 ni3 0 0.00195217006577
Gb37_3 ns37 0 ni3 0 0.00255962056045
Gb39_3 ns39 0 ni3 0 0.00292332563325
Gb41_3 ns41 0 ni3 0 0.00370299238458
Gb43_4 ns43 0 ni4 0 2.21453757614e-006
Gb44_4 ns44 0 ni4 0 5.94929859159e-006
Gb46_4 ns46 0 ni4 0 3.44943447153e-005
Gb47_4 ns47 0 ni4 0 0.000128409554636
Gb48_4 ns48 0 ni4 0 0.000691897607168
Gb49_4 ns49 0 ni4 0 0.00195217006577
Gb51_4 ns51 0 ni4 0 0.00255962056045
Gb53_4 ns53 0 ni4 0 0.00292332563325
Gb55_4 ns55 0 ni4 0 0.00370299238458
Gb57_5 ns57 0 ni5 0 2.21453757614e-006
Gb58_5 ns58 0 ni5 0 5.94929859159e-006
Gb60_5 ns60 0 ni5 0 3.44943447153e-005
Gb61_5 ns61 0 ni5 0 0.000128409554636
Gb62_5 ns62 0 ni5 0 0.000691897607168
Gb63_5 ns63 0 ni5 0 0.00195217006577
Gb65_5 ns65 0 ni5 0 0.00255962056045
Gb67_5 ns67 0 ni5 0 0.00292332563325
Gb69_5 ns69 0 ni5 0 0.00370299238458
Gb71_6 ns71 0 ni6 0 2.21453757614e-006
Gb72_6 ns72 0 ni6 0 5.94929859159e-006
Gb74_6 ns74 0 ni6 0 3.44943447153e-005
Gb75_6 ns75 0 ni6 0 0.000128409554636
Gb76_6 ns76 0 ni6 0 0.000691897607168
Gb77_6 ns77 0 ni6 0 0.00195217006577
Gb79_6 ns79 0 ni6 0 0.00255962056045
Gb81_6 ns81 0 ni6 0 0.00292332563325
Gb83_6 ns83 0 ni6 0 0.00370299238458

Gc1_1 0 n2 ns1 0 0.00406500055402
Gc1_2 0 n2 ns2 0 0.000864071582941
Gc1_3 0 n2 ns3 0 -0.00152530902649
Gc1_4 0 n2 ns4 0 0.000212099998978
Gc1_5 0 n2 ns5 0 0.000568279383855
Gc1_6 0 n2 ns6 0 -0.00263281238331
Gc1_7 0 n2 ns7 0 -0.0122952468239
Gc1_8 0 n2 ns8 0 0.0031238082615
Gc1_9 0 n2 ns9 0 -0.015281915186
Gc1_10 0 n2 ns10 0 -0.00335845691633
Gc1_11 0 n2 ns11 0 -0.00133836015305
Gc1_12 0 n2 ns12 0 -0.00260254722904
Gc1_13 0 n2 ns13 0 0.000285556861196
Gc1_14 0 n2 ns14 0 -0.00936939782143
Gc1_15 0 n2 ns15 0 -0.0081598025928
Gc1_16 0 n2 ns16 0 -0.00166851063228
Gc1_17 0 n2 ns17 0 0.00247034411904
Gc1_18 0 n2 ns18 0 -0.00045412998686
Gc1_19 0 n2 ns19 0 -0.000510491792076
Gc1_20 0 n2 ns20 0 -0.000363972434805
Gc1_21 0 n2 ns21 0 0.00160607995907
Gc1_22 0 n2 ns22 0 -0.00109495266101
Gc1_23 0 n2 ns23 0 -0.000207816710692
Gc1_24 0 n2 ns24 0 0.000116730729762
Gc1_25 0 n2 ns25 0 -4.71775275746e-005
Gc1_26 0 n2 ns26 0 -0.000416345870738
Gc1_27 0 n2 ns27 0 0.00269243722014
Gc1_28 0 n2 ns28 0 0.000930325424426
Gc1_29 0 n2 ns29 0 0.002533034121
Gc1_30 0 n2 ns30 0 0.00118232347416
Gc1_31 0 n2 ns31 0 -0.0020402890632
Gc1_32 0 n2 ns32 0 0.000220432957486
Gc1_33 0 n2 ns33 0 0.000168549111241
Gc1_34 0 n2 ns34 0 -0.00253497933834
Gc1_35 0 n2 ns35 0 -0.00323046400302
Gc1_36 0 n2 ns36 0 0.00253588544608
Gc1_37 0 n2 ns37 0 0.00374280638461
Gc1_38 0 n2 ns38 0 -0.00638009537828
Gc1_39 0 n2 ns39 0 -0.000905396842279
Gc1_40 0 n2 ns40 0 0.00244929608467
Gc1_41 0 n2 ns41 0 -0.00323283402955
Gc1_42 0 n2 ns42 0 0.00356124006496
Gc1_43 0 n2 ns43 0 -0.000917449944965
Gc1_44 0 n2 ns44 0 0.000140828514585
Gc1_45 0 n2 ns45 0 -0.000374079238049
Gc1_46 0 n2 ns46 0 6.94006699673e-005
Gc1_47 0 n2 ns47 0 0.000133755851396
Gc1_48 0 n2 ns48 0 0.00221570686572
Gc1_49 0 n2 ns49 0 -0.000250801976648
Gc1_50 0 n2 ns50 0 -0.00531782949291
Gc1_51 0 n2 ns51 0 -0.00417487633451
Gc1_52 0 n2 ns52 0 -0.00700776141562
Gc1_53 0 n2 ns53 0 0.000439727697149
Gc1_54 0 n2 ns54 0 0.00202766368886
Gc1_55 0 n2 ns55 0 0.000925379053928
Gc1_56 0 n2 ns56 0 -0.000741818698461
Gc1_57 0 n2 ns57 0 -3.60008139503e-005
Gc1_58 0 n2 ns58 0 -3.19886519568e-005
Gc1_59 0 n2 ns59 0 -0.00010210903104
Gc1_60 0 n2 ns60 0 1.90741475829e-005
Gc1_61 0 n2 ns61 0 2.82304219022e-005
Gc1_62 0 n2 ns62 0 0.000411618424026
Gc1_63 0 n2 ns63 0 0.000429616750322
Gc1_64 0 n2 ns64 0 -1.05424867231e-005
Gc1_65 0 n2 ns65 0 0.000350137634671
Gc1_66 0 n2 ns66 0 0.000403536393455
Gc1_67 0 n2 ns67 0 0.000165597698358
Gc1_68 0 n2 ns68 0 0.000251573030575
Gc1_69 0 n2 ns69 0 -0.000407476672633
Gc1_70 0 n2 ns70 0 -0.000665946043373
Gc1_71 0 n2 ns71 0 0.000803975485601
Gc1_72 0 n2 ns72 0 -0.000151421102362
Gc1_73 0 n2 ns73 0 0.000302669088548
Gc1_74 0 n2 ns74 0 -4.82513203379e-005
Gc1_75 0 n2 ns75 0 -0.00010638670994
Gc1_76 0 n2 ns76 0 -0.00115749133413
Gc1_77 0 n2 ns77 0 0.00195313921616
Gc1_78 0 n2 ns78 0 0.00523543926693
Gc1_79 0 n2 ns79 0 0.00625956242226
Gc1_80 0 n2 ns80 0 0.00859177611394
Gc1_81 0 n2 ns81 0 -0.000113278199358
Gc1_82 0 n2 ns82 0 -0.00191827902173
Gc1_83 0 n2 ns83 0 -0.0025593887656
Gc1_84 0 n2 ns84 0 0.00130699930921
Gd1_1 0 n2 ni1 0 -0.00319355349429
Gd1_2 0 n2 ni2 0 0.00284157356206
Gd1_3 0 n2 ni3 0 0.00307153719467
Gd1_4 0 n2 ni4 0 0.000378980624217
Gd1_5 0 n2 ni5 0 0.00101160324665
Gd1_6 0 n2 ni6 0 0.00125374615052
Gc2_1 0 n4 ns1 0 -0.00659583535465
Gc2_2 0 n4 ns2 0 -0.00224351444967
Gc2_3 0 n4 ns3 0 0.00372636901759
Gc2_4 0 n4 ns4 0 -0.000440398757078
Gc2_5 0 n4 ns5 0 -0.000538690424652
Gc2_6 0 n4 ns6 0 -0.000285501681127
Gc2_7 0 n4 ns7 0 0.00176994361165
Gc2_8 0 n4 ns8 0 -0.00106518012093
Gc2_9 0 n4 ns9 0 -0.000207664739823
Gc2_10 0 n4 ns10 0 0.00023416675094
Gc2_11 0 n4 ns11 0 -4.22578476459e-005
Gc2_12 0 n4 ns12 0 -0.000405334722573
Gc2_13 0 n4 ns13 0 0.00267735825588
Gc2_14 0 n4 ns14 0 0.000961903906656
Gc2_15 0 n4 ns15 0 0.0161113234661
Gc2_16 0 n4 ns16 0 0.00319170126336
Gc2_17 0 n4 ns17 0 -0.00515436244727
Gc2_18 0 n4 ns18 0 0.00106445366325
Gc2_19 0 n4 ns19 0 0.000801029221153
Gc2_20 0 n4 ns20 0 -0.0376507208686
Gc2_21 0 n4 ns21 0 -0.00163392241397
Gc2_22 0 n4 ns22 0 -0.0015016317067
Gc2_23 0 n4 ns23 0 0.000596360396249
Gc2_24 0 n4 ns24 0 -0.00827331075533
Gc2_25 0 n4 ns25 0 -0.00195280937548
Gc2_26 0 n4 ns26 0 -0.00114460977228
Gc2_27 0 n4 ns27 0 0.000837537636028
Gc2_28 0 n4 ns28 0 -0.00901901145417
Gc2_29 0 n4 ns29 0 -0.00661574744864
Gc2_30 0 n4 ns30 0 -0.00214219894928
Gc2_31 0 n4 ns31 0 0.00375487094244
Gc2_32 0 n4 ns32 0 -0.000471669505007
Gc2_33 0 n4 ns33 0 -0.000519893484
Gc2_34 0 n4 ns34 0 0.00143879009053
Gc2_35 0 n4 ns35 0 0.00297872693312
Gc2_36 0 n4 ns36 0 1.69236741353e-005
Gc2_37 0 n4 ns37 0 0.00268158453845
Gc2_38 0 n4 ns38 0 0.0033886534466
Gc2_39 0 n4 ns39 0 0.000234439739802
Gc2_40 0 n4 ns40 0 0.000541778417828
Gc2_41 0 n4 ns41 0 -0.00119559357417
Gc2_42 0 n4 ns42 0 0.000348311682857
Gc2_43 0 n4 ns43 0 0.000129539742938
Gc2_44 0 n4 ns44 0 2.32423651879e-005
Gc2_45 0 n4 ns45 0 0.000118188248671
Gc2_46 0 n4 ns46 0 -7.988836743e-005
Gc2_47 0 n4 ns47 0 0.000146767054741
Gc2_48 0 n4 ns48 0 0.0113013596425
Gc2_49 0 n4 ns49 0 -0.00361415430402
Gc2_50 0 n4 ns50 0 0.00220086859893
Gc2_51 0 n4 ns51 0 -0.00411280070046
Gc2_52 0 n4 ns52 0 -0.000523338377954
Gc2_53 0 n4 ns53 0 4.75924952648e-005
Gc2_54 0 n4 ns54 0 0.00076313235514
Gc2_55 0 n4 ns55 0 -0.000299380637536
Gc2_56 0 n4 ns56 0 0.00115414366066
Gc2_57 0 n4 ns57 0 3.21258162714e-005
Gc2_58 0 n4 ns58 0 -1.02456561775e-005
Gc2_59 0 n4 ns59 0 6.78613606266e-005
Gc2_60 0 n4 ns60 0 -5.49901899575e-005
Gc2_61 0 n4 ns61 0 0.000109455550431
Gc2_62 0 n4 ns62 0 0.0102943523306
Gc2_63 0 n4 ns63 0 -0.00383745801242
Gc2_64 0 n4 ns64 0 0.00176042468056
Gc2_65 0 n4 ns65 0 -0.00424655487947
Gc2_66 0 n4 ns66 0 -0.00117121085692
Gc2_67 0 n4 ns67 0 -0.000281615021343
Gc2_68 0 n4 ns68 0 0.000438673048197
Gc2_69 0 n4 ns69 0 -0.00264167812209
Gc2_70 0 n4 ns70 0 0.000487032037647
Gc2_71 0 n4 ns71 0 0.000132275412805
Gc2_72 0 n4 ns72 0 2.46399910089e-005
Gc2_73 0 n4 ns73 0 0.00012409930078
Gc2_74 0 n4 ns74 0 -8.37842345005e-005
Gc2_75 0 n4 ns75 0 0.000156787173402
Gc2_76 0 n4 ns76 0 0.0121599430203
Gc2_77 0 n4 ns77 0 -0.00355647058951
Gc2_78 0 n4 ns78 0 0.00268757213445
Gc2_79 0 n4 ns79 0 -0.00338536216804
Gc2_80 0 n4 ns80 0 0.00151520583933
Gc2_81 0 n4 ns81 0 0.000143346330462
Gc2_82 0 n4 ns82 0 -0.000362173951539
Gc2_83 0 n4 ns83 0 -0.000667460475624
Gc2_84 0 n4 ns84 0 0.00140215274436
Gd2_1 0 n4 ni1 0 0.00288647580746
Gd2_2 0 n4 ni2 0 -0.000775019156994
Gd2_3 0 n4 ni3 0 0.00222226340832
Gd2_4 0 n4 ni4 0 0.00151096271413
Gd2_5 0 n4 ni5 0 0.00139500411461
Gd2_6 0 n4 ni6 0 0.00124663012447
Gc3_1 0 n6 ns1 0 0.002558432108
Gc3_2 0 n6 ns2 0 0.00117090917321
Gc3_3 0 n6 ns3 0 -0.00204409004405
Gc3_4 0 n6 ns4 0 0.00021685696297
Gc3_5 0 n6 ns5 0 0.0001753572934
Gc3_6 0 n6 ns6 0 -0.00257077489638
Gc3_7 0 n6 ns7 0 -0.00327150348769
Gc3_8 0 n6 ns8 0 0.00253565677729
Gc3_9 0 n6 ns9 0 0.00376304903356
Gc3_10 0 n6 ns10 0 -0.00642006503486
Gc3_11 0 n6 ns11 0 -0.000903894406117
Gc3_12 0 n6 ns12 0 0.00245049560389
Gc3_13 0 n6 ns13 0 -0.00324037717623
Gc3_14 0 n6 ns14 0 0.00356568904011
Gc3_15 0 n6 ns15 0 -0.00821025271169
Gc3_16 0 n6 ns16 0 -0.00158850325459
Gc3_17 0 n6 ns17 0 0.00251366144502
Gc3_18 0 n6 ns18 0 -0.00047370023481
Gc3_19 0 n6 ns19 0 -0.000500838486238
Gc3_20 0 n6 ns20 0 0.00136770854858
Gc3_21 0 n6 ns21 0 0.00287964929815
Gc3_22 0 n6 ns22 0 -8.50456017687e-006
Gc3_23 0 n6 ns23 0 0.00266172258074
Gc3_24 0 n6 ns24 0 0.00331223642434
Gc3_25 0 n6 ns25 0 0.000226823990441
Gc3_26 0 n6 ns26 0 0.000533262852307
Gc3_27 0 n6 ns27 0 -0.0011807341729
Gc3_28 0 n6 ns28 0 0.000314405545408
Gc3_29 0 n6 ns29 0 0.0040109615108
Gc3_30 0 n6 ns30 0 0.000908347604056
Gc3_31 0 n6 ns31 0 -0.00150079935285
Gc3_32 0 n6 ns32 0 0.000198410007799
Gc3_33 0 n6 ns33 0 0.000543983951935
Gc3_34 0 n6 ns34 0 -0.00222594981043
Gc3_35 0 n6 ns35 0 -0.0108886655989
Gc3_36 0 n6 ns36 0 0.00246958942706
Gc3_37 0 n6 ns37 0 -0.0141638913184
Gc3_38 0 n6 ns38 0 -0.00357424661554
Gc3_39 0 n6 ns39 0 -0.000124714199992
Gc3_40 0 n6 ns40 0 -0.00289448221424
Gc3_41 0 n6 ns41 0 0.000927488109411
Gc3_42 0 n6 ns42 0 -0.00832420331803
Gc3_43 0 n6 ns43 0 0.000816041965
Gc3_44 0 n6 ns44 0 -0.000147176439125
Gc3_45 0 n6 ns45 0 0.000320422494896
Gc3_46 0 n6 ns46 0 -5.50506340157e-005
Gc3_47 0 n6 ns47 0 -9.65979255503e-005
Gc3_48 0 n6 ns48 0 -0.00172996464577
Gc3_49 0 n6 ns49 0 0.00117555837091
Gc3_50 0 n6 ns50 0 0.00493488994445
Gc3_51 0 n6 ns51 0 0.00401143615224
Gc3_52 0 n6 ns52 0 0.00756075866489
Gc3_53 0 n6 ns53 0 -0.000309716793756
Gc3_54 0 n6 ns54 0 -0.00212912835575
Gc3_55 0 n6 ns55 0 -0.000926632843007
Gc3_56 0 n6 ns56 0 0.000626515739155
Gc3_57 0 n6 ns57 0 -3.74069072166e-005
Gc3_58 0 n6 ns58 0 -3.09036993668e-005
Gc3_59 0 n6 ns59 0 -0.000101362592824
Gc3_60 0 n6 ns60 0 2.28319548177e-005
Gc3_61 0 n6 ns61 0 1.44761449527e-005
Gc3_62 0 n6 ns62 0 3.28962672096e-005
Gc3_63 0 n6 ns63 0 0.000445587836807
Gc3_64 0 n6 ns64 0 -0.000369302235482
Gc3_65 0 n6 ns65 0 2.86963449786e-005
Gc3_66 0 n6 ns66 0 1.77637794593e-005
Gc3_67 0 n6 ns67 0 -0.000273691501459
Gc3_68 0 n6 ns68 0 -0.000317927066528
Gc3_69 0 n6 ns69 0 0.000644903240442
Gc3_70 0 n6 ns70 0 0.000329664423133
Gc3_71 0 n6 ns71 0 -0.000953181926112
Gc3_72 0 n6 ns72 0 0.000151399175876
Gc3_73 0 n6 ns73 0 -0.000372958599113
Gc3_74 0 n6 ns74 0 6.77990424619e-005
Gc3_75 0 n6 ns75 0 0.000132285017172
Gc3_76 0 n6 ns76 0 0.00160594947287
Gc3_77 0 n6 ns77 0 -0.000714348050493
Gc3_78 0 n6 ns78 0 -0.00536569412112
Gc3_79 0 n6 ns79 0 -0.00542524102602
Gc3_80 0 n6 ns80 0 -0.00805337849188
Gc3_81 0 n6 ns81 0 -0.00031135186963
Gc3_82 0 n6 ns82 0 0.00202100777473
Gc3_83 0 n6 ns83 0 0.00279708323066
Gc3_84 0 n6 ns84 0 -0.00106755333833
Gd3_1 0 n6 ni1 0 0.00306394178712
Gd3_2 0 n6 ni2 0 0.00218908284339
Gd3_3 0 n6 ni3 0 -8.911594304e-005
Gd3_4 0 n6 ni4 0 0.00104400988054
Gd3_5 0 n6 ni5 0 0.000918463176481
Gd3_6 0 n6 ni6 0 0.00026250138685
Gc4_1 0 n8 ns1 0 -0.000963824594284
Gc4_2 0 n8 ns2 0 0.000154567752982
Gc4_3 0 n8 ns3 0 -0.000392163769556
Gc4_4 0 n8 ns4 0 6.45757993427e-005
Gc4_5 0 n8 ns5 0 0.000141062164105
Gc4_6 0 n8 ns6 0 0.00223912157311
Gc4_7 0 n8 ns7 0 -0.000154445465561
Gc4_8 0 n8 ns8 0 -0.00535478821919
Gc4_9 0 n8 ns9 0 -0.00413167360192
Gc4_10 0 n8 ns10 0 -0.00692472213983
Gc4_11 0 n8 ns11 0 0.000453589070413
Gc4_12 0 n8 ns12 0 0.00203621441182
Gc4_13 0 n8 ns13 0 0.000908425607157
Gc4_14 0 n8 ns14 0 -0.000698616810804
Gc4_15 0 n8 ns15 0 0.000120351639266
Gc4_16 0 n8 ns16 0 -2.35852835508e-005
Gc4_17 0 n8 ns17 0 3.32450911838e-005
Gc4_18 0 n8 ns18 0 -4.6281600601e-005
Gc4_19 0 n8 ns19 0 0.000127318786179
Gc4_20 0 n8 ns20 0 0.011394512894
Gc4_21 0 n8 ns21 0 -0.00350893738453
Gc4_22 0 n8 ns22 0 0.00233560750501
Gc4_23 0 n8 ns23 0 -0.00420056618004
Gc4_24 0 n8 ns24 0 -0.000489602505436
Gc4_25 0 n8 ns25 0 3.17497732071e-005
Gc4_26 0 n8 ns26 0 0.000762687263262
Gc4_27 0 n8 ns27 0 -0.000306055263275
Gc4_28 0 n8 ns28 0 0.00113169055794
Gc4_29 0 n8 ns29 0 0.000848952207011
Gc4_30 0 n8 ns30 0 -0.000146868321325
Gc4_31 0 n8 ns31 0 0.000367859410587
Gc4_32 0 n8 ns32 0 -5.22159350587e-005
Gc4_33 0 n8 ns33 0 -0.000102485930174
Gc4_34 0 n8 ns34 0 -0.00173140059642
Gc4_35 0 n8 ns35 0 0.00115932929657
Gc4_36 0 n8 ns36 0 0.00493742169333
Gc4_37 0 n8 ns37 0 0.00400268869843
Gc4_38 0 n8 ns38 0 0.00756721590542
Gc4_39 0 n8 ns39 0 -0.000327094136568
Gc4_40 0 n8 ns40 0 -0.00211872734241
Gc4_41 0 n8 ns41 0 -0.000940776720183
Gc4_42 0 n8 ns42 0 0.000590678563421
Gc4_43 0 n8 ns43 0 0.000735298627173
Gc4_44 0 n8 ns44 0 -0.000168960917485
Gc4_45 0 n8 ns45 0 0.000278388120297
Gc4_46 0 n8 ns46 0 -1.56460182017e-005
Gc4_47 0 n8 ns47 0 0.00023169157655
Gc4_48 0 n8 ns48 0 -0.00483636996575
Gc4_49 0 n8 ns49 0 -0.00293334527939
Gc4_50 0 n8 ns50 0 -0.0008069014585
Gc4_51 0 n8 ns51 0 -0.00181535929139
Gc4_52 0 n8 ns52 0 -0.00700219143933
Gc4_53 0 n8 ns53 0 -0.00124993992602
Gc4_54 0 n8 ns54 0 -0.00107335455003
Gc4_55 0 n8 ns55 0 0.00326962103455
Gc4_56 0 n8 ns56 0 0.00142815820673
Gc4_57 0 n8 ns57 0 0.000154517221934
Gc4_58 0 n8 ns58 0 -3.84945320326e-005
Gc4_59 0 n8 ns59 0 6.47358494891e-005
Gc4_60 0 n8 ns60 0 -1.26427627889e-005
Gc4_61 0 n8 ns61 0 -5.67339059748e-005
Gc4_62 0 n8 ns62 0 -0.00446347902109
Gc4_63 0 n8 ns63 0 -0.000745760936539
Gc4_64 0 n8 ns64 0 0.00115768930366
Gc4_65 0 n8 ns65 0 -0.000493007654167
Gc4_66 0 n8 ns66 0 0.00054662689212
Gc4_67 0 n8 ns67 0 0.000341061994069
Gc4_68 0 n8 ns68 0 -0.00045142287046
Gc4_69 0 n8 ns69 0 0.00159633474
Gc4_70 0 n8 ns70 0 0.00337597621371
Gc4_71 0 n8 ns71 0 -0.000872203900532
Gc4_72 0 n8 ns72 0 0.00016343156329
Gc4_73 0 n8 ns73 0 -0.000251185086246
Gc4_74 0 n8 ns74 0 6.68285212581e-006
Gc4_75 0 n8 ns75 0 -0.000110752931716
Gc4_76 0 n8 ns76 0 -0.00563716098076
Gc4_77 0 n8 ns77 0 -0.00280672720569
Gc4_78 0 n8 ns78 0 0.00201886932583
Gc4_79 0 n8 ns79 0 -0.00257459546369
Gc4_80 0 n8 ns80 0 0.000444636574223
Gc4_81 0 n8 ns81 0 -0.00118307533281
Gc4_82 0 n8 ns82 0 0.000561511525242
Gc4_83 0 n8 ns83 0 -0.00609192441819
Gc4_84 0 n8 ns84 0 -0.010362177993
Gd4_1 0 n8 ni1 0 0.000415552124463
Gd4_2 0 n8 ni2 0 0.00150630161494
Gd4_3 0 n8 ni3 0 0.00101732984955
Gd4_4 0 n8 ni4 0 0.00268545511402
Gd4_5 0 n8 ni5 0 0.00361264867524
Gd4_6 0 n8 ni6 0 -0.00160879361937
Gc5_1 0 n10 ns1 0 1.26526684468e-005
Gc5_2 0 n10 ns2 0 -9.51911133966e-006
Gc5_3 0 n10 ns3 0 -3.63777771631e-005
Gc5_4 0 n10 ns4 0 -6.8231274255e-008
Gc5_5 0 n10 ns5 0 4.01835603603e-005
Gc5_6 0 n10 ns6 0 0.000387026700301
Gc5_7 0 n10 ns7 0 0.000426055475232
Gc5_8 0 n10 ns8 0 -5.74975370077e-005
Gc5_9 0 n10 ns9 0 0.000396772107868
Gc5_10 0 n10 ns10 0 0.000416885885536
Gc5_11 0 n10 ns11 0 0.000172966967367
Gc5_12 0 n10 ns12 0 0.00026063001471
Gc5_13 0 n10 ns13 0 -0.000415970601222
Gc5_14 0 n10 ns14 0 -0.000652208852342
Gc5_15 0 n10 ns15 0 -8.41911522813e-005
Gc5_16 0 n10 ns16 0 2.18200060989e-005
Gc5_17 0 n10 ns17 0 1.31473936121e-007
Gc5_18 0 n10 ns18 0 -4.63136198334e-005
Gc5_19 0 n10 ns19 0 0.000113098539935
Gc5_20 0 n10 ns20 0 0.0103138488591
Gc5_21 0 n10 ns21 0 -0.0037730806829
Gc5_22 0 n10 ns22 0 0.00180917176884
Gc5_23 0 n10 ns23 0 -0.00424154478669
Gc5_24 0 n10 ns24 0 -0.00112749886463
Gc5_25 0 n10 ns25 0 -0.000280240537583
Gc5_26 0 n10 ns26 0 0.000453215061879
Gc5_27 0 n10 ns27 0 -0.00268117762593
Gc5_28 0 n10 ns28 0 0.000489396144524
Gc5_29 0 n10 ns29 0 -7.365462195e-006
Gc5_30 0 n10 ns30 0 -6.64232677554e-006
Gc5_31 0 n10 ns31 0 -5.00344897603e-005
Gc5_32 0 n10 ns32 0 4.75850968173e-006
Gc5_33 0 n10 ns33 0 2.75120266992e-005
Gc5_34 0 n10 ns34 0 -5.7162586247e-006
Gc5_35 0 n10 ns35 0 0.000407818030712
Gc5_36 0 n10 ns36 0 -0.000417553335845
Gc5_37 0 n10 ns37 0 7.11278483939e-005
Gc5_38 0 n10 ns38 0 -1.76847412141e-006
Gc5_39 0 n10 ns39 0 -0.000264825857282
Gc5_40 0 n10 ns40 0 -0.000314085397631
Gc5_41 0 n10 ns41 0 0.000644216493664
Gc5_42 0 n10 ns42 0 0.000341713532504
Gc5_43 0 n10 ns43 0 0.000102241346472
Gc5_44 0 n10 ns44 0 -9.41275427114e-006
Gc5_45 0 n10 ns45 0 5.02308902599e-005
Gc5_46 0 n10 ns46 0 -2.42269029921e-005
Gc5_47 0 n10 ns47 0 -6.52879319898e-005
Gc5_48 0 n10 ns48 0 -0.00440512341422
Gc5_49 0 n10 ns49 0 -0.000730453910896
Gc5_50 0 n10 ns50 0 0.00126308643806
Gc5_51 0 n10 ns51 0 -0.000580198247037
Gc5_52 0 n10 ns52 0 0.000538575831824
Gc5_53 0 n10 ns53 0 0.000327979676903
Gc5_54 0 n10 ns54 0 -0.000451071077065
Gc5_55 0 n10 ns55 0 0.00159332983971
Gc5_56 0 n10 ns56 0 0.00334350120701
Gc5_57 0 n10 ns57 0 -0.000251193288642
Gc5_58 0 n10 ns58 0 1.56805938675e-005
Gc5_59 0 n10 ns59 0 -9.43850482182e-005
Gc5_60 0 n10 ns60 0 9.43923102986e-006
Gc5_61 0 n10 ns61 0 0.00020889423535
Gc5_62 0 n10 ns62 0 -0.00429505858303
Gc5_63 0 n10 ns63 0 -0.00387280705113
Gc5_64 0 n10 ns64 0 0.000508251448896
Gc5_65 0 n10 ns65 0 -0.00310430268258
Gc5_66 0 n10 ns66 0 -0.0056258755159
Gc5_67 0 n10 ns67 0 -0.00213782751921
Gc5_68 0 n10 ns68 0 -0.000134187318995
Gc5_69 0 n10 ns69 0 -0.00178623748515
Gc5_70 0 n10 ns70 0 -0.0100421557784
Gc5_71 0 n10 ns71 0 0.000122151380355
Gc5_72 0 n10 ns72 0 -1.75523805853e-005
Gc5_73 0 n10 ns73 0 8.18481834079e-005
Gc5_74 0 n10 ns74 0 -2.11453433512e-005
Gc5_75 0 n10 ns75 0 -5.93617461588e-005
Gc5_76 0 n10 ns76 0 -0.00481213314644
Gc5_77 0 n10 ns77 0 -0.00113213271072
Gc5_78 0 n10 ns78 0 0.0012379969188
Gc5_79 0 n10 ns79 0 -0.00115794555529
Gc5_80 0 n10 ns80 0 0.000155315689424
Gc5_81 0 n10 ns81 0 0.000443040648629
Gc5_82 0 n10 ns82 0 1.67365522721e-006
Gc5_83 0 n10 ns83 0 0.00108615228567
Gc5_84 0 n10 ns84 0 0.00203651886607
Gd5_1 0 n10 ni1 0 0.00102304728018
Gd5_2 0 n10 ni2 0 0.00137189509585
Gd5_3 0 n10 ni3 0 0.000923948397782
Gd5_4 0 n10 ni4 0 0.00357493850372
Gd5_5 0 n10 ni5 0 -0.00229154099986
Gd5_6 0 n10 ni6 0 0.00349857937829
Gc6_1 0 n12 ns1 0 0.000887301666521
Gc6_2 0 n12 ns2 0 -0.000160535482172
Gc6_3 0 n12 ns3 0 0.000370810871496
Gc6_4 0 n12 ns4 0 -6.19055524084e-005
Gc6_5 0 n12 ns5 0 -9.85460469039e-005
Gc6_6 0 n12 ns6 0 -0.00116488000712
Gc6_7 0 n12 ns7 0 0.00195624968623
Gc6_8 0 n12 ns8 0 0.00527665081833
Gc6_9 0 n12 ns9 0 0.00624925484585
Gc6_10 0 n12 ns10 0 0.00858484578205
Gc6_11 0 n12 ns11 0 -0.000117090090293
Gc6_12 0 n12 ns12 0 -0.00192034175573
Gc6_13 0 n12 ns13 0 -0.00256382892018
Gc6_14 0 n12 ns14 0 0.00129672791599
Gc6_15 0 n12 ns15 0 0.000106710014012
Gc6_16 0 n12 ns16 0 -3.33595495032e-005
Gc6_17 0 n12 ns17 0 1.88702944089e-005
Gc6_18 0 n12 ns18 0 -4.36485336816e-005
Gc6_19 0 n12 ns19 0 0.000131207740714
Gc6_20 0 n12 ns20 0 0.0122651777028
Gc6_21 0 n12 ns21 0 -0.00338010236005
Gc6_22 0 n12 ns22 0 0.00280237520071
Gc6_23 0 n12 ns23 0 -0.0034597039413
Gc6_24 0 n12 ns24 0 0.00161846475041
Gc6_25 0 n12 ns25 0 0.000130312630779
Gc6_26 0 n12 ns26 0 -0.000356270460176
Gc6_27 0 n12 ns27 0 -0.000687388068558
Gc6_28 0 n12 ns28 0 0.0013960789862
Gc6_29 0 n12 ns29 0 -0.000978609874614
Gc6_30 0 n12 ns30 0 0.000144764659555
Gc6_31 0 n12 ns31 0 -0.000396691796561
Gc6_32 0 n12 ns32 0 7.45963391206e-005
Gc6_33 0 n12 ns33 0 0.000132127319915
Gc6_34 0 n12 ns34 0 0.00158574959061
Gc6_35 0 n12 ns35 0 -0.000756339969335
Gc6_36 0 n12 ns36 0 -0.00539308373627
Gc6_37 0 n12 ns37 0 -0.00541897127086
Gc6_38 0 n12 ns38 0 -0.00809074175079
Gc6_39 0 n12 ns39 0 -0.00030685889222
Gc6_40 0 n12 ns40 0 0.00200801000053
Gc6_41 0 n12 ns41 0 0.00282387788375
Gc6_42 0 n12 ns42 0 -0.00105632774028
Gc6_43 0 n12 ns43 0 -0.000863415211833
Gc6_44 0 n12 ns44 0 0.000171081532885
Gc6_45 0 n12 ns45 0 -0.000248063203551
Gc6_46 0 n12 ns46 0 6.27804621441e-006
Gc6_47 0 n12 ns47 0 -0.000115628907268
Gc6_48 0 n12 ns48 0 -0.00561247444733
Gc6_49 0 n12 ns49 0 -0.00276092520926
Gc6_50 0 n12 ns50 0 0.00207258042553
Gc6_51 0 n12 ns51 0 -0.0025859823174
Gc6_52 0 n12 ns52 0 0.000464713079367
Gc6_53 0 n12 ns53 0 -0.00118840847968
Gc6_54 0 n12 ns54 0 0.00057056813971
Gc6_55 0 n12 ns55 0 -0.0061116974468
Gc6_56 0 n12 ns56 0 -0.0103699019336
Gc6_57 0 n12 ns57 0 8.61486110466e-005
Gc6_58 0 n12 ns58 0 -2.41219466077e-005
Gc6_59 0 n12 ns59 0 3.11857684147e-005
Gc6_60 0 n12 ns60 0 -2.30351463188e-005
Gc6_61 0 n12 ns61 0 -3.19479250201e-005
Gc6_62 0 n12 ns62 0 -0.00484584375053
Gc6_63 0 n12 ns63 0 -0.00114753864531
Gc6_64 0 n12 ns64 0 0.00122303409335
Gc6_65 0 n12 ns65 0 -0.00113961114277
Gc6_66 0 n12 ns66 0 0.000147324382127
Gc6_67 0 n12 ns67 0 0.000445919628101
Gc6_68 0 n12 ns68 0 2.2637108484e-007
Gc6_69 0 n12 ns69 0 0.00109453730578
Gc6_70 0 n12 ns70 0 0.00204098301218
Gc6_71 0 n12 ns71 0 0.000705705168938
Gc6_72 0 n12 ns72 0 -0.000140143331636
Gc6_73 0 n12 ns73 0 0.000301289556406
Gc6_74 0 n12 ns74 0 -7.75734942084e-006
Gc6_75 0 n12 ns75 0 0.000229182557449
Gc6_76 0 n12 ns76 0 -0.00559014665259
Gc6_77 0 n12 ns77 0 -0.00390834883132
Gc6_78 0 n12 ns78 0 -0.000992821461516
Gc6_79 0 n12 ns79 0 -0.00344730558691
Gc6_80 0 n12 ns80 0 -0.00913728029076
Gc6_81 0 n12 ns81 0 -0.000985932193323
Gc6_82 0 n12 ns82 0 -0.000351824397757
Gc6_83 0 n12 ns83 0 0.00325665151265
Gc6_84 0 n12 ns84 0 0.00138084472221
Gd6_1 0 n12 ni1 0 0.00124665720259
Gd6_2 0 n12 ni2 0 0.00125439435681
Gd6_3 0 n12 ni3 0 0.000274821642964
Gd6_4 0 n12 ni4 0 -0.00161296977263
Gd6_5 0 n12 ni5 0 0.00351725301149
Gd6_6 0 n12 ni6 0 0.00152915772513
.ends

***********************************************************************************