**************************************************
* Manufacturer:          Würth Elektronik
* Kinds:                 Antennas
* Matchcode:             WE-MCA
* Library Type:          LTspice
* Version:               rev25a
* Created/modified by:   Ella
* Date and Time:         04/09/2025
* Team:                  eiSos EDA Service  
* Contact:               libraries@we-online.com
**************************************************
* Copyright(C) 2025 Würth Elektronik eiSos GmbH & Co. KG
* All Rights Reserved.
**************************************************
* Disclaimer: While Würth Elektronik eiSos has made every reasonable effort to ensure the accuracy
* of the simulation models provided, Würth Elektronik eiSos does not guarantee the exemption of error on
* the simulation models, nor does Würth Elektronik eiSos guarantee that the simulation model is current.
* Würth Elektronik eiSos reserves the right to make any adjustments at any time without notice.
* Würth Elektronik eiSos expressly disclaims all implied warranties regarding this simulation model.
**************************************************

.subckt 74889102450 1
Vam1 1 n2 dc 0
Rport1 n2 0 50

Fi1 0 ni1 Vam1 50
Gi1 0 ni1 1 0 1
Rt1 ni1 0 1

Ca1 ns1 0 1e-12
Ra1 ns1 0 0.553232728068
Ca2 ns2 0 1e-12
Ca3 ns3 0 1e-12
Ra2 ns2 0 49.3012761246
Ra3 ns3 0 49.3012761246
Ga2 ns2 0 ns3 0 -0.0707280832119
Ga3 ns3 0 ns2 0 0.0707280832119
Ca4 ns4 0 1e-12
Ca5 ns5 0 1e-12
Ra4 ns4 0 136749.707845
Ra5 ns5 0 136749.707845
Ga4 ns4 0 ns5 0 -0.0621194720889
Ga5 ns5 0 ns4 0 0.0621194720889
Ca6 ns6 0 1e-12
Ca7 ns7 0 1e-12
Ra6 ns6 0 266.332152543
Ra7 ns7 0 266.332152543
Ga6 ns6 0 ns7 0 -0.0560600904291
Ga7 ns7 0 ns6 0 0.0560600904291
Ca8 ns8 0 1e-12
Ca9 ns9 0 1e-12
Ra8 ns8 0 1327748.71537
Ra9 ns9 0 1327748.71537
Ga8 ns8 0 ns9 0 -0.0600984624254
Ga9 ns9 0 ns8 0 0.0600984624254
Ca10 ns10 0 1e-12
Ca11 ns11 0 1e-12
Ra10 ns10 0 749114.831958
Ra11 ns11 0 749114.831958
Ga10 ns10 0 ns11 0 -0.0598029353609
Ga11 ns11 0 ns10 0 0.0598029353609
Ca12 ns12 0 1e-12
Ca13 ns13 0 1e-12
Ra12 ns12 0 30409279.1292
Ra13 ns13 0 30409279.1292
Ga12 ns12 0 ns13 0 -0.0594701139353
Ga13 ns13 0 ns12 0 0.0594701139353
Ca14 ns14 0 1e-12
Ca15 ns15 0 1e-12
Ra14 ns14 0 156486.758878
Ra15 ns15 0 156486.758878
Ga14 ns14 0 ns15 0 -0.0582466032526
Ga15 ns15 0 ns14 0 0.0582466032526
Ca16 ns16 0 1e-12
Ca17 ns17 0 1e-12
Ra16 ns16 0 1121680.77779
Ra17 ns17 0 1121680.77779
Ga16 ns16 0 ns17 0 -0.0581501204286
Ga17 ns17 0 ns16 0 0.0581501204286
Ca18 ns18 0 1e-12
Ca19 ns19 0 1e-12
Ra18 ns18 0 4595.77122355
Ra19 ns19 0 4595.77122355
Ga18 ns18 0 ns19 0 -0.0475519253485
Ga19 ns19 0 ns18 0 0.0475519253485
Ca20 ns20 0 1e-12
Ca21 ns21 0 1e-12
Ra20 ns20 0 38.5290118671
Ra21 ns21 0 38.5290118671
Ga20 ns20 0 ns21 0 -0.0297772468218
Ga21 ns21 0 ns20 0 0.0297772468218
Ca22 ns22 0 1e-12
Ca23 ns23 0 1e-12
Ra22 ns22 0 308281.643871
Ra23 ns23 0 308281.643871
Ga22 ns22 0 ns23 0 -0.0462167827728
Ga23 ns23 0 ns22 0 0.0462167827728
Ca24 ns24 0 1e-12
Ca25 ns25 0 1e-12
Ra24 ns24 0 2983.4226679
Ra25 ns25 0 2983.4226679
Ga24 ns24 0 ns25 0 -0.0402133375161
Ga25 ns25 0 ns24 0 0.0402133375161
Ca26 ns26 0 1e-12
Ca27 ns27 0 1e-12
Ra26 ns26 0 54479.2769388
Ra27 ns27 0 54479.2769388
Ga26 ns26 0 ns27 0 -0.0370724258377
Ga27 ns27 0 ns26 0 0.0370724258377
Ca28 ns28 0 1e-12
Ca29 ns29 0 1e-12
Ra28 ns28 0 4597.86570891
Ra29 ns29 0 4597.86570891
Ga28 ns28 0 ns29 0 -0.0335644289192
Ga29 ns29 0 ns28 0 0.0335644289192
Ca30 ns30 0 1e-12
Ca31 ns31 0 1e-12
Ra30 ns30 0 215.687423093
Ra31 ns31 0 215.687423093
Ga30 ns30 0 ns31 0 -0.0316254915644
Ga31 ns31 0 ns30 0 0.0316254915644
Ca32 ns32 0 1e-12
Ca33 ns33 0 1e-12
Ra32 ns32 0 67106.7263446
Ra33 ns33 0 67106.7263446
Ga32 ns32 0 ns33 0 -0.0295861259993
Ga33 ns33 0 ns32 0 0.0295861259993
Ca34 ns34 0 1e-12
Ca35 ns35 0 1e-12
Ra34 ns34 0 1153.15738026
Ra35 ns35 0 1153.15738026
Ga34 ns34 0 ns35 0 -0.02730584034
Ga35 ns35 0 ns34 0 0.02730584034
Ca36 ns36 0 1e-12
Ra36 ns36 0 119.882913445
Ca37 ns37 0 1e-12
Ca38 ns38 0 1e-12
Ra37 ns37 0 407.823522583
Ra38 ns38 0 407.823522583
Ga37 ns37 0 ns38 0 -0.0215276850685
Ga38 ns38 0 ns37 0 0.0215276850685
Ca39 ns39 0 1e-12
Ca40 ns40 0 1e-12
Ra39 ns39 0 4894.8038581
Ra40 ns40 0 4894.8038581
Ga39 ns39 0 ns40 0 -0.0220812531711
Ga40 ns40 0 ns39 0 0.0220812531711
Ca41 ns41 0 1e-12
Ca42 ns42 0 1e-12
Ra41 ns41 0 2986.25814958
Ra42 ns42 0 2986.25814958
Ga41 ns41 0 ns42 0 -0.0207164778305
Ga42 ns42 0 ns41 0 0.0207164778305
Ca43 ns43 0 1e-12
Ca44 ns44 0 1e-12
Ra43 ns43 0 17310.2956297
Ra44 ns44 0 17310.2956297
Ga43 ns43 0 ns44 0 -0.0203475757809
Ga44 ns44 0 ns43 0 0.0203475757809
Ca45 ns45 0 1e-12
Ca46 ns46 0 1e-12
Ra45 ns45 0 2763.49937231
Ra46 ns46 0 2763.49937231
Ga45 ns45 0 ns46 0 -0.00761672518945
Ga46 ns46 0 ns45 0 0.00761672518945
Ca47 ns47 0 1e-12
Ca48 ns48 0 1e-12
Ra47 ns47 0 16339.3386237
Ra48 ns48 0 16339.3386237
Ga47 ns47 0 ns48 0 -0.0200321562255
Ga48 ns48 0 ns47 0 0.0200321562255
Ca49 ns49 0 1e-12
Ca50 ns50 0 1e-12
Ra49 ns49 0 9624.66558357
Ra50 ns50 0 9624.66558357
Ga49 ns49 0 ns50 0 -0.0196513552719
Ga50 ns50 0 ns49 0 0.0196513552719
Ca51 ns51 0 1e-12
Ca52 ns52 0 1e-12
Ra51 ns51 0 3336.84337763
Ra52 ns52 0 3336.84337763
Ga51 ns51 0 ns52 0 -0.00895088018906
Ga52 ns52 0 ns51 0 0.00895088018906
Ca53 ns53 0 1e-12
Ca54 ns54 0 1e-12
Ra53 ns53 0 278.676409294
Ra54 ns54 0 278.676409294
Ga53 ns53 0 ns54 0 -0.0130476536532
Ga54 ns54 0 ns53 0 0.0130476536532
Ca55 ns55 0 1e-12
Ca56 ns56 0 1e-12
Ra55 ns55 0 20892.3276753
Ra56 ns56 0 20892.3276753
Ga55 ns55 0 ns56 0 -0.0190341377291
Ga56 ns56 0 ns55 0 0.0190341377291
Ca57 ns57 0 1e-12
Ca58 ns58 0 1e-12
Ra57 ns57 0 5856.0599358
Ra58 ns58 0 5856.0599358
Ga57 ns57 0 ns58 0 -0.0186784093131
Ga58 ns58 0 ns57 0 0.0186784093131
Ca59 ns59 0 1e-12
Ca60 ns60 0 1e-12
Ra59 ns59 0 4082.6069247
Ra60 ns60 0 4082.6069247
Ga59 ns59 0 ns60 0 -0.0100803835946
Ga60 ns60 0 ns59 0 0.0100803835946
Ca61 ns61 0 1e-12
Ca62 ns62 0 1e-12
Ra61 ns61 0 6667.64904039
Ra62 ns62 0 6667.64904039
Ga61 ns61 0 ns62 0 -0.010699021873
Ga62 ns62 0 ns61 0 0.010699021873
Ca63 ns63 0 1e-12
Ca64 ns64 0 1e-12
Ra63 ns63 0 10580.4914177
Ra64 ns64 0 10580.4914177
Ga63 ns63 0 ns64 0 -0.0180806326574
Ga64 ns64 0 ns63 0 0.0180806326574
Ca65 ns65 0 1e-12
Ca66 ns66 0 1e-12
Ra65 ns65 0 961.619272907
Ra66 ns66 0 961.619272907
Ga65 ns65 0 ns66 0 -0.0173700779613
Ga66 ns66 0 ns65 0 0.0173700779613
Ca67 ns67 0 1e-12
Ca68 ns68 0 1e-12
Ra67 ns67 0 22582.0089094
Ra68 ns68 0 22582.0089094
Ga67 ns67 0 ns68 0 -0.0113564024039
Ga68 ns68 0 ns67 0 0.0113564024039
Ca69 ns69 0 1e-12
Ca70 ns70 0 1e-12
Ra69 ns69 0 11810.6973623
Ra70 ns70 0 11810.6973623
Ga69 ns69 0 ns70 0 -0.0174531401007
Ga70 ns70 0 ns69 0 0.0174531401007
Ca71 ns71 0 1e-12
Ca72 ns72 0 1e-12
Ra71 ns71 0 11036.4156636
Ra72 ns72 0 11036.4156636
Ga71 ns71 0 ns72 0 -0.0117487143643
Ga72 ns72 0 ns71 0 0.0117487143643
Ca73 ns73 0 1e-12
Ca74 ns74 0 1e-12
Ra73 ns73 0 7030.19813339
Ra74 ns74 0 7030.19813339
Ga73 ns73 0 ns74 0 -0.017071523874
Ga74 ns74 0 ns73 0 0.017071523874
Ca75 ns75 0 1e-12
Ca76 ns76 0 1e-12
Ra75 ns75 0 2565.51893361
Ra76 ns76 0 2565.51893361
Ga75 ns75 0 ns76 0 -0.0126048142303
Ga76 ns76 0 ns75 0 0.0126048142303
Ca77 ns77 0 1e-12
Ca78 ns78 0 1e-12
Ra77 ns77 0 30731.417166
Ra78 ns78 0 30731.417166
Ga77 ns77 0 ns78 0 -0.0167751054171
Ga78 ns78 0 ns77 0 0.0167751054171
Ca79 ns79 0 1e-12
Ca80 ns80 0 1e-12
Ra79 ns79 0 78416.0472155
Ra80 ns80 0 78416.0472155
Ga79 ns79 0 ns80 0 -0.0124218173573
Ga80 ns80 0 ns79 0 0.0124218173573
Ca81 ns81 0 1e-12
Ca82 ns82 0 1e-12
Ra81 ns81 0 12343.1588972
Ra82 ns82 0 12343.1588972
Ga81 ns81 0 ns82 0 -0.0124853607663
Ga82 ns82 0 ns81 0 0.0124853607663
Ca83 ns83 0 1e-12
Ca84 ns84 0 1e-12
Ra83 ns83 0 47971.3349024
Ra84 ns84 0 47971.3349024
Ga83 ns83 0 ns84 0 -0.0164761143356
Ga84 ns84 0 ns83 0 0.0164761143356
Ca85 ns85 0 1e-12
Ca86 ns86 0 1e-12
Ra85 ns85 0 31512.43735
Ra86 ns86 0 31512.43735
Ga85 ns85 0 ns86 0 -0.0129353370281
Ga86 ns86 0 ns85 0 0.0129353370281
Ca87 ns87 0 1e-12
Ca88 ns88 0 1e-12
Ra87 ns87 0 11532.9869412
Ra88 ns88 0 11532.9869412
Ga87 ns87 0 ns88 0 -0.0162497540812
Ga88 ns88 0 ns87 0 0.0162497540812
Ca89 ns89 0 1e-12
Ca90 ns90 0 1e-12
Ra89 ns89 0 14725.4374614
Ra90 ns90 0 14725.4374614
Ga89 ns89 0 ns90 0 -0.0157227459236
Ga90 ns90 0 ns89 0 0.0157227459236
Ca91 ns91 0 1e-12
Ca92 ns92 0 1e-12
Ra91 ns91 0 13416.8208464
Ra92 ns92 0 13416.8208464
Ga91 ns91 0 ns92 0 -0.0152020991789
Ga92 ns92 0 ns91 0 0.0152020991789
Ca93 ns93 0 1e-12
Ca94 ns94 0 1e-12
Ra93 ns93 0 12782.630184
Ra94 ns94 0 12782.630184
Ga93 ns93 0 ns94 0 -0.0136913262232
Ga94 ns94 0 ns93 0 0.0136913262232
Ca95 ns95 0 1e-12
Ca96 ns96 0 1e-12
Ra95 ns95 0 16463.8122558
Ra96 ns96 0 16463.8122558
Ga95 ns95 0 ns96 0 -0.0135027083453
Ga96 ns96 0 ns95 0 0.0135027083453
Ca97 ns97 0 1e-12
Ca98 ns98 0 1e-12
Ra97 ns97 0 35070.2347901
Ra98 ns98 0 35070.2347901
Ga97 ns97 0 ns98 0 -0.0149314616298
Ga98 ns98 0 ns97 0 0.0149314616298
Ca99 ns99 0 1e-12
Ca100 ns100 0 1e-12
Ra99 ns99 0 100038.743892
Ra100 ns100 0 100038.743892
Ga99 ns99 0 ns100 0 -0.0161102255307
Ga100 ns100 0 ns99 0 0.0161102255307
Ca101 ns101 0 1e-12
Ca102 ns102 0 1e-12
Ra101 ns101 0 28878.8634154
Ra102 ns102 0 28878.8634154
Ga101 ns101 0 ns102 0 -0.0143563014401
Ga102 ns102 0 ns101 0 0.0143563014401
Ca103 ns103 0 1e-12
Ca104 ns104 0 1e-12
Ra103 ns103 0 13761.6821921
Ra104 ns104 0 13761.6821921
Ga103 ns103 0 ns104 0 -0.0145203103825
Ga104 ns104 0 ns103 0 0.0145203103825
Ca105 ns105 0 1e-12
Ca106 ns106 0 1e-12
Ra105 ns105 0 42730.9014713
Ra106 ns106 0 42730.9014713
Ga105 ns105 0 ns106 0 -0.015464540572
Ga106 ns106 0 ns105 0 0.015464540572
Ca107 ns107 0 1e-12
Ca108 ns108 0 1e-12
Ra107 ns107 0 242140.991887
Ra108 ns108 0 242140.991887
Ga107 ns107 0 ns108 0 -0.0133192439151
Ga108 ns108 0 ns107 0 0.0133192439151
Ca109 ns109 0 1e-12
Ca110 ns110 0 1e-12
Ra109 ns109 0 87439.0402886
Ra110 ns110 0 87439.0402886
Ga109 ns109 0 ns110 0 -0.0140530741922
Ga110 ns110 0 ns109 0 0.0140530741922

Gb1_1 ns1 0 ni1 0 1.80755755989
Gb2_1 ns2 0 ni1 0 0.0415693842509
Gb3_1 ns3 0 ni1 0 -0.0646236878416
Gb4_1 ns4 0 ni1 0 0.0153387036284
Gb5_1 ns5 0 ni1 0 0.0621176672959
Gb6_1 ns6 0 ni1 0 0.0558617853848
Gb7_1 ns7 0 ni1 0 -0.0067155242124
Gb8_1 ns8 0 ni1 0 -0.0600979043154
Gb9_1 ns9 0 ni1 0 0.0445355109612
Gb10_1 ns10 0 ni1 0 0.0483141111233
Gb11_1 ns11 0 ni1 0 0.0598018569331
Gb12_1 ns12 0 ni1 0 0.0435349858174
Gb13_1 ns13 0 ni1 0 -0.0594700898621
Gb14_1 ns14 0 ni1 0 0.00493843099644
Gb15_1 ns15 0 ni1 0 -0.0582460621514
Gb16_1 ns16 0 ni1 0 0.0581500725759
Gb17_1 ns17 0 ni1 0 0.00312212594695
Gb18_1 ns18 0 ni1 0 -0.00136129778047
Gb19_1 ns19 0 ni1 0 -0.0475466918987
Gb20_1 ns20 0 ni1 0 -0.0251881359054
Gb21_1 ns21 0 ni1 0 -0.0304451976931
Gb22_1 ns22 0 ni1 0 -0.045681574286
Gb23_1 ns23 0 ni1 0 0.0462135767777
Gb24_1 ns24 0 ni1 0 0.0398911829426
Gb25_1 ns25 0 ni1 0 -0.038985159433
Gb26_1 ns26 0 ni1 0 0.037070605025
Gb27_1 ns27 0 ni1 0 0.00369581272587
Gb28_1 ns28 0 ni1 0 0.0163439700492
Gb29_1 ns29 0 ni1 0 0.0334599318815
Gb30_1 ns30 0 ni1 0 0.0285540840233
Gb31_1 ns31 0 ni1 0 -0.0255870878889
Gb32_1 ns32 0 ni1 0 0.0288661661632
Gb33_1 ns33 0 ni1 0 -0.0295715944909
Gb34_1 ns34 0 ni1 0 0.0123353962842
Gb35_1 ns35 0 ni1 0 0.0269416305781
Gb36_1 ns36 0 ni1 0 0.00834147228543
Gb37_1 ns37 0 ni1 0 0.0209189436346
Gb38_1 ns38 0 ni1 0 0.00779648420641
Gb39_1 ns39 0 ni1 0 0.00188521731384
Gb40_1 ns40 0 ni1 0 0.0220657011161
Gb41_1 ns41 0 ni1 0 -0.0206758710685
Gb42_1 ns42 0 ni1 0 -0.00284699444295
Gb43_1 ns43 0 ni1 0 0.00718979810952
Gb44_1 ns44 0 ni1 0 0.020327327137
Gb45_1 ns45 0 ni1 0 0.00762023011028
Gb46_1 ns46 0 ni1 0 0.000288085611315
Gb47_1 ns47 0 ni1 0 0.0199274331945
Gb48_1 ns48 0 ni1 0 0.0199714611699
Gb49_1 ns49 0 ni1 0 -0.0196385991226
Gb50_1 ns50 0 ni1 0 0.00251656875825
Gb51_1 ns51 0 ni1 0 0.00883939790838
Gb52_1 ns52 0 ni1 0 0.0036294021024
Gb53_1 ns53 0 ni1 0 0.0123859637427
Gb54_1 ns54 0 ni1 0 -0.00599434428696
Gb55_1 ns55 0 ni1 0 -0.00468843973077
Gb56_1 ns56 0 ni1 0 0.0190224682416
Gb57_1 ns57 0 ni1 0 0.0185866586998
Gb58_1 ns58 0 ni1 0 -0.0102066182616
Gb59_1 ns59 0 ni1 0 0.00990345474391
Gb60_1 ns60 0 ni1 0 0.00752631459975
Gb61_1 ns61 0 ni1 0 -0.00223239546073
Gb62_1 ns62 0 ni1 0 -0.0106698307361
Gb63_1 ns63 0 ni1 0 -0.0180096480779
Gb64_1 ns64 0 ni1 0 0.0136740040878
Gb65_1 ns65 0 ni1 0 -0.0132474882521
Gb66_1 ns66 0 ni1 0 0.016639234278
Gb67_1 ns67 0 ni1 0 -0.0113536959652
Gb68_1 ns68 0 ni1 0 0.000738350285134
Gb69_1 ns69 0 ni1 0 0.0174105046296
Gb70_1 ns70 0 ni1 0 0.00887327879921
Gb71_1 ns71 0 ni1 0 0.00358633460256
Gb72_1 ns72 0 ni1 0 0.0117217544241
Gb73_1 ns73 0 ni1 0 -0.017069427721
Gb74_1 ns74 0 ni1 0 0.000393815812858
Gb75_1 ns75 0 ni1 0 -0.0124635254
Gb76_1 ns76 0 ni1 0 -0.00495876728085
Gb77_1 ns77 0 ni1 0 0.0167595476939
Gb78_1 ns78 0 ni1 0 -0.00805290043923
Gb79_1 ns79 0 ni1 0 0.0124112449125
Gb80_1 ns80 0 ni1 0 -0.0103110518306
Gb81_1 ns81 0 ni1 0 -0.00796178507799
Gb82_1 ns82 0 ni1 0 0.0124342230704
Gb83_1 ns83 0 ni1 0 0.016457909232
Gb84_1 ns84 0 ni1 0 0.0144098173859
Gb85_1 ns85 0 ni1 0 -0.0047267440443
Gb86_1 ns86 0 ni1 0 -0.0129238190347
Gb87_1 ns87 0 ni1 0 0.0161884798769
Gb88_1 ns88 0 ni1 0 0.0115699962384
Gb89_1 ns89 0 ni1 0 0.0156740019345
Gb90_1 ns90 0 ni1 0 0.0113533282263
Gb91_1 ns91 0 ni1 0 0.013724127135
Gb92_1 ns92 0 ni1 0 -0.0151351775434
Gb93_1 ns93 0 ni1 0 -0.0136803674366
Gb94_1 ns94 0 ni1 0 0.00199614111907
Gb95_1 ns95 0 ni1 0 -0.0134767026377
Gb96_1 ns96 0 ni1 0 0.00584196553629
Gb97_1 ns97 0 ni1 0 0.00174893702331
Gb98_1 ns98 0 ni1 0 0.0149281761848
Gb99_1 ns99 0 ni1 0 0.0161099512156
Gb100_1 ns100 0 ni1 0 0.000452095231193
Gb101_1 ns101 0 ni1 0 -0.0143369347409
Gb102_1 ns102 0 ni1 0 0.00806393828211
Gb103_1 ns103 0 ni1 0 -0.0144753544946
Gb104_1 ns104 0 ni1 0 -0.00905592624575
Gb105_1 ns105 0 ni1 0 0.0119776608752
Gb106_1 ns106 0 ni1 0 -0.0154464503636
Gb107_1 ns107 0 ni1 0 0.0133168812907
Gb108_1 ns108 0 ni1 0 0.00762391239894
Gb109_1 ns109 0 ni1 0 0.0140524465082
Gb110_1 ns110 0 ni1 0 -0.000782726571324

Gc1_1 0 n2 ns1 0 8.50193834279e-05
Gc1_2 0 n2 ns2 0 0.0291559658664
Gc1_3 0 n2 ns3 0 0.00613661704747
Gc1_4 0 n2 ns4 0 -4.86658469902e-09
Gc1_5 0 n2 ns5 0 1.97065303931e-08
Gc1_6 0 n2 ns6 0 0.00644229242007
Gc1_7 0 n2 ns7 0 -0.000923199144419
Gc1_8 0 n2 ns8 0 -1.99459075144e-08
Gc1_9 0 n2 ns9 0 -1.47807069541e-08
Gc1_10 0 n2 ns10 0 3.33347604139e-09
Gc1_11 0 n2 ns11 0 -4.12603116591e-09
Gc1_12 0 n2 ns12 0 2.90963053405e-09
Gc1_13 0 n2 ns13 0 3.9746108819e-09
Gc1_14 0 n2 ns14 0 -1.15443876859e-09
Gc1_15 0 n2 ns15 0 -1.36238704556e-08
Gc1_16 0 n2 ns16 0 7.11604659474e-09
Gc1_17 0 n2 ns17 0 -3.81467831171e-10
Gc1_18 0 n2 ns18 0 4.28554302481e-08
Gc1_19 0 n2 ns19 0 -1.38642807894e-06
Gc1_20 0 n2 ns20 0 -0.157421966185
Gc1_21 0 n2 ns21 0 0.0928991185149
Gc1_22 0 n2 ns22 0 -5.45859040941e-09
Gc1_23 0 n2 ns23 0 -5.4997542424e-09
Gc1_24 0 n2 ns24 0 8.34526466597e-06
Gc1_25 0 n2 ns25 0 8.12763586549e-06
Gc1_26 0 n2 ns26 0 -9.00967302704e-08
Gc1_27 0 n2 ns27 0 9.091073823e-09
Gc1_28 0 n2 ns28 0 5.39224276893e-05
Gc1_29 0 n2 ns29 0 -0.000108244519018
Gc1_30 0 n2 ns30 0 0.00491520425486
Gc1_31 0 n2 ns31 0 0.0175928712217
Gc1_32 0 n2 ns32 0 7.42597407412e-08
Gc1_33 0 n2 ns33 0 7.58677290576e-08
Gc1_34 0 n2 ns34 0 4.97464017036e-06
Gc1_35 0 n2 ns35 0 -1.29758263856e-05
Gc1_36 0 n2 ns36 0 -0.114382204812
Gc1_37 0 n2 ns37 0 -0.00906681650157
Gc1_38 0 n2 ns38 0 0.00536276214162
Gc1_39 0 n2 ns39 0 -5.5566700006e-07
Gc1_40 0 n2 ns40 0 6.97221874708e-06
Gc1_41 0 n2 ns41 0 2.87664020027e-05
Gc1_42 0 n2 ns42 0 -7.77984369401e-06
Gc1_43 0 n2 ns43 0 6.5102172944e-08
Gc1_44 0 n2 ns44 0 -6.7719346656e-07
Gc1_45 0 n2 ns45 0 -2.05418049406e-05
Gc1_46 0 n2 ns46 0 1.44992920719e-05
Gc1_47 0 n2 ns47 0 4.82902105805e-07
Gc1_48 0 n2 ns48 0 -4.05052532284e-07
Gc1_49 0 n2 ns49 0 -2.11922371567e-06
Gc1_50 0 n2 ns50 0 -8.13700732775e-07
Gc1_51 0 n2 ns51 0 -1.96764000219e-05
Gc1_52 0 n2 ns52 0 3.64922041954e-06
Gc1_53 0 n2 ns53 0 -0.024238804571
Gc1_54 0 n2 ns54 0 0.00647144607971
Gc1_55 0 n2 ns55 0 2.42796946261e-07
Gc1_56 0 n2 ns56 0 8.21336041283e-07
Gc1_57 0 n2 ns57 0 9.00470128151e-06
Gc1_58 0 n2 ns58 0 5.58353255688e-06
Gc1_59 0 n2 ns59 0 -1.24375489207e-05
Gc1_60 0 n2 ns60 0 4.10222525709e-06
Gc1_61 0 n2 ns61 0 -4.51067356012e-07
Gc1_62 0 n2 ns62 0 -5.95113357079e-06
Gc1_63 0 n2 ns63 0 1.91311840998e-06
Gc1_64 0 n2 ns64 0 2.3988754155e-06
Gc1_65 0 n2 ns65 0 -0.00010878554191
Gc1_66 0 n2 ns66 0 -0.000496516693463
Gc1_67 0 n2 ns67 0 9.47041977882e-07
Gc1_68 0 n2 ns68 0 3.74722303315e-07
Gc1_69 0 n2 ns69 0 1.74564136244e-06
Gc1_70 0 n2 ns70 0 -1.07781186732e-06
Gc1_71 0 n2 ns71 0 6.59739282806e-07
Gc1_72 0 n2 ns72 0 -2.3883534151e-06
Gc1_73 0 n2 ns73 0 -1.03923207171e-05
Gc1_74 0 n2 ns74 0 -8.67395977893e-07
Gc1_75 0 n2 ns75 0 0.000117559558585
Gc1_76 0 n2 ns76 0 -9.61270282517e-05
Gc1_77 0 n2 ns77 0 7.10599983495e-07
Gc1_78 0 n2 ns78 0 2.74043894244e-07
Gc1_79 0 n2 ns79 0 -9.99718772651e-08
Gc1_80 0 n2 ns80 0 -2.40819758776e-07
Gc1_81 0 n2 ns81 0 -7.47903447034e-07
Gc1_82 0 n2 ns82 0 3.30367891853e-06
Gc1_83 0 n2 ns83 0 -1.57761076742e-07
Gc1_84 0 n2 ns84 0 1.30290672951e-07
Gc1_85 0 n2 ns85 0 -1.88675862405e-07
Gc1_86 0 n2 ns86 0 5.27248375739e-07
Gc1_87 0 n2 ns87 0 -2.18407891392e-06
Gc1_88 0 n2 ns88 0 1.88973333089e-06
Gc1_89 0 n2 ns89 0 -1.78323531718e-06
Gc1_90 0 n2 ns90 0 1.69604000983e-06
Gc1_91 0 n2 ns91 0 -1.52980291499e-06
Gc1_92 0 n2 ns92 0 -2.44864169205e-06
Gc1_93 0 n2 ns93 0 -3.77483923897e-06
Gc1_94 0 n2 ns94 0 4.76510358139e-07
Gc1_95 0 n2 ns95 0 -1.66425050044e-06
Gc1_96 0 n2 ns96 0 -1.77623355701e-06
Gc1_97 0 n2 ns97 0 2.16318799264e-07
Gc1_98 0 n2 ns98 0 -7.2775319761e-07
Gc1_99 0 n2 ns99 0 -1.33098816007e-07
Gc1_100 0 n2 ns100 0 8.28302522356e-09
Gc1_101 0 n2 ns101 0 7.11187261203e-07
Gc1_102 0 n2 ns102 0 6.17920519874e-07
Gc1_103 0 n2 ns103 0 -2.76307960988e-06
Gc1_104 0 n2 ns104 0 5.66390876032e-07
Gc1_105 0 n2 ns105 0 -2.62132036646e-07
Gc1_106 0 n2 ns106 0 -2.27216348849e-07
Gc1_107 0 n2 ns107 0 -7.57048282807e-08
Gc1_108 0 n2 ns108 0 4.40819504424e-08
Gc1_109 0 n2 ns109 0 1.76714648803e-07
Gc1_110 0 n2 ns110 0 -8.07511419279e-09
Gd1_1 0 n2 ni1 0 0.00397664296003
.ends 74889102450


.subckt 74889302450 1
Vam1 1 n2 dc 0
Rport1 n2 0 50

Fi1 0 ni1 Vam1 50
Gi1 0 ni1 1 0 1
Rt1 ni1 0 1

Ca1 ns1 0 1e-12
Ca2 ns2 0 1e-12
Ra1 ns1 0 34.4730840855
Ra2 ns2 0 34.4730840855
Ga1 ns1 0 ns2 0 -0.0508431371251
Ga2 ns2 0 ns1 0 0.0508431371251
Ca3 ns3 0 1e-12
Ca4 ns4 0 1e-12
Ra3 ns3 0 300.608047284
Ra4 ns4 0 300.608047284
Ga3 ns3 0 ns4 0 -0.0636608021834
Ga4 ns4 0 ns3 0 0.0636608021834
Ca5 ns5 0 1e-12
Ra5 ns5 0 31.4437172209
Ca6 ns6 0 1e-12
Ca7 ns7 0 1e-12
Ra6 ns6 0 7358.395661
Ra7 ns7 0 7358.395661
Ga6 ns6 0 ns7 0 -0.0624242830305
Ga7 ns7 0 ns6 0 0.0624242830305
Ca8 ns8 0 1e-12
Ca9 ns9 0 1e-12
Ra8 ns8 0 1128352.3687
Ra9 ns9 0 1128352.3687
Ga8 ns8 0 ns9 0 -0.062395346752
Ga9 ns9 0 ns8 0 0.062395346752
Ca10 ns10 0 1e-12
Ca11 ns11 0 1e-12
Ra10 ns10 0 35696.2091233
Ra11 ns11 0 35696.2091233
Ga10 ns10 0 ns11 0 -0.0606337520695
Ga11 ns11 0 ns10 0 0.0606337520695
Ca12 ns12 0 1e-12
Ca13 ns13 0 1e-12
Ra12 ns12 0 109241.03563
Ra13 ns13 0 109241.03563
Ga12 ns12 0 ns13 0 -0.05957662092
Ga13 ns13 0 ns12 0 0.05957662092
Ca14 ns14 0 1e-12
Ca15 ns15 0 1e-12
Ra14 ns14 0 34233.4101578
Ra15 ns15 0 34233.4101578
Ga14 ns14 0 ns15 0 -0.0593858648235
Ga15 ns15 0 ns14 0 0.0593858648235
Ca16 ns16 0 1e-12
Ca17 ns17 0 1e-12
Ra16 ns16 0 83863.426151
Ra17 ns17 0 83863.426151
Ga16 ns16 0 ns17 0 -0.0586099089447
Ga17 ns17 0 ns16 0 0.0586099089447
Ca18 ns18 0 1e-12
Ca19 ns19 0 1e-12
Ra18 ns18 0 32292.7336332
Ra19 ns19 0 32292.7336332
Ga18 ns18 0 ns19 0 -0.0582342982873
Ga19 ns19 0 ns18 0 0.0582342982873
Ca20 ns20 0 1e-12
Ca21 ns21 0 1e-12
Ra20 ns20 0 513653.415573
Ra21 ns21 0 513653.415573
Ga20 ns20 0 ns21 0 -0.0573522971339
Ga21 ns21 0 ns20 0 0.0573522971339
Ca22 ns22 0 1e-12
Ca23 ns23 0 1e-12
Ra22 ns22 0 500.892390278
Ra23 ns23 0 500.892390278
Ga22 ns22 0 ns23 0 -0.0542583373458
Ga23 ns23 0 ns22 0 0.0542583373458
Ca24 ns24 0 1e-12
Ca25 ns25 0 1e-12
Ra24 ns24 0 3520.47198572
Ra25 ns25 0 3520.47198572
Ga24 ns24 0 ns25 0 -0.0556628782773
Ga25 ns25 0 ns24 0 0.0556628782773
Ca26 ns26 0 1e-12
Ca27 ns27 0 1e-12
Ra26 ns26 0 230337.128423
Ra27 ns27 0 230337.128423
Ga26 ns26 0 ns27 0 -0.0564933716341
Ga27 ns27 0 ns26 0 0.0564933716341
Ca28 ns28 0 1e-12
Ca29 ns29 0 1e-12
Ra28 ns28 0 323.36793708
Ra29 ns29 0 323.36793708
Ga28 ns28 0 ns29 0 -0.0515370769988
Ga29 ns29 0 ns28 0 0.0515370769988
Ca30 ns30 0 1e-12
Ca31 ns31 0 1e-12
Ra30 ns30 0 2295.94864946
Ra31 ns31 0 2295.94864946
Ga30 ns30 0 ns31 0 -0.0537071701393
Ga31 ns31 0 ns30 0 0.0537071701393
Ca32 ns32 0 1e-12
Ca33 ns33 0 1e-12
Ra32 ns32 0 21061.6237766
Ra33 ns33 0 21061.6237766
Ga32 ns32 0 ns33 0 -0.0535237781423
Ga33 ns33 0 ns32 0 0.0535237781423
Ca34 ns34 0 1e-12
Ca35 ns35 0 1e-12
Ra34 ns34 0 108554.593114
Ra35 ns35 0 108554.593114
Ga34 ns34 0 ns35 0 -0.0500512317594
Ga35 ns35 0 ns34 0 0.0500512317594
Ca36 ns36 0 1e-12
Ca37 ns37 0 1e-12
Ra36 ns36 0 157680.826708
Ra37 ns37 0 157680.826708
Ga36 ns36 0 ns37 0 -0.0486463393375
Ga37 ns37 0 ns36 0 0.0486463393375
Ca38 ns38 0 1e-12
Ca39 ns39 0 1e-12
Ra38 ns38 0 312454.964762
Ra39 ns39 0 312454.964762
Ga38 ns38 0 ns39 0 -0.0466238237202
Ga39 ns39 0 ns38 0 0.0466238237202
Ca40 ns40 0 1e-12
Ca41 ns41 0 1e-12
Ra40 ns40 0 141426.635701
Ra41 ns41 0 141426.635701
Ga40 ns40 0 ns41 0 -0.0454419050057
Ga41 ns41 0 ns40 0 0.0454419050057
Ca42 ns42 0 1e-12
Ca43 ns43 0 1e-12
Ra42 ns42 0 489633.524309
Ra43 ns43 0 489633.524309
Ga42 ns42 0 ns43 0 -0.0423644391796
Ga43 ns43 0 ns42 0 0.0423644391796
Ca44 ns44 0 1e-12
Ca45 ns45 0 1e-12
Ra44 ns44 0 266885.357512
Ra45 ns45 0 266885.357512
Ga44 ns44 0 ns45 0 -0.0412906438457
Ga45 ns45 0 ns44 0 0.0412906438457
Ca46 ns46 0 1e-12
Ca47 ns47 0 1e-12
Ra46 ns46 0 221.260773586
Ra47 ns47 0 221.260773586
Ga46 ns46 0 ns47 0 -0.0331334669109
Ga47 ns47 0 ns46 0 0.0331334669109
Ca48 ns48 0 1e-12
Ca49 ns49 0 1e-12
Ra48 ns48 0 931729.237616
Ra49 ns49 0 931729.237616
Ga48 ns48 0 ns49 0 -0.0342057457706
Ga49 ns49 0 ns48 0 0.0342057457706
Ca50 ns50 0 1e-12
Ca51 ns51 0 1e-12
Ra50 ns50 0 172688.877467
Ra51 ns51 0 172688.877467
Ga50 ns50 0 ns51 0 -0.0331032947675
Ga51 ns51 0 ns50 0 0.0331032947675
Ca52 ns52 0 1e-12
Ca53 ns53 0 1e-12
Ra52 ns52 0 666728.848533
Ra53 ns53 0 666728.848533
Ga52 ns52 0 ns53 0 -0.0320271131786
Ga53 ns53 0 ns52 0 0.0320271131786
Ca54 ns54 0 1e-12
Ca55 ns55 0 1e-12
Ra54 ns54 0 3620794.14524
Ra55 ns55 0 3620794.14524
Ga54 ns54 0 ns55 0 -0.027948370589
Ga55 ns55 0 ns54 0 0.027948370589
Ca56 ns56 0 1e-12
Ca57 ns57 0 1e-12
Ra56 ns56 0 297758.061896
Ra57 ns57 0 297758.061896
Ga56 ns56 0 ns57 0 -0.0275311740952
Ga57 ns57 0 ns56 0 0.0275311740952
Ca58 ns58 0 1e-12
Ca59 ns59 0 1e-12
Ra58 ns58 0 387376.613838
Ra59 ns59 0 387376.613838
Ga58 ns58 0 ns59 0 -0.0272954744215
Ga59 ns59 0 ns58 0 0.0272954744215
Ca60 ns60 0 1e-12
Ca61 ns61 0 1e-12
Ra60 ns60 0 265116.533112
Ra61 ns61 0 265116.533112
Ga60 ns60 0 ns61 0 -0.0247753753848
Ga61 ns61 0 ns60 0 0.0247753753848
Ca62 ns62 0 1e-12
Ra62 ns62 0 170.557512537
Ca63 ns63 0 1e-12
Ra63 ns63 0 1013.44450232
Ca64 ns64 0 1e-12
Ca65 ns65 0 1e-12
Ra64 ns64 0 131707.839961
Ra65 ns65 0 131707.839961
Ga64 ns64 0 ns65 0 -0.023852150777
Ga65 ns65 0 ns64 0 0.023852150777
Ca66 ns66 0 1e-12
Ca67 ns67 0 1e-12
Ra66 ns66 0 3289.29762298
Ra67 ns67 0 3289.29762298
Ga66 ns66 0 ns67 0 -0.021582825849
Ga67 ns67 0 ns66 0 0.021582825849
Ca68 ns68 0 1e-12
Ca69 ns69 0 1e-12
Ra68 ns68 0 238204.467989
Ra69 ns69 0 238204.467989
Ga68 ns68 0 ns69 0 -0.00522236469138
Ga69 ns69 0 ns68 0 0.00522236469138
Ca70 ns70 0 1e-12
Ca71 ns71 0 1e-12
Ra70 ns70 0 182.595849439
Ra71 ns71 0 182.595849439
Ga70 ns70 0 ns71 0 -0.0136021703502
Ga71 ns71 0 ns70 0 0.0136021703502
Ca72 ns72 0 1e-12
Ca73 ns73 0 1e-12
Ra72 ns72 0 23601.1738678
Ra73 ns73 0 23601.1738678
Ga72 ns72 0 ns73 0 -0.00990508868564
Ga73 ns73 0 ns72 0 0.00990508868564
Ca74 ns74 0 1e-12
Ca75 ns75 0 1e-12
Ra74 ns74 0 11179.9457156
Ra75 ns75 0 11179.9457156
Ga74 ns74 0 ns75 0 -0.0189959097594
Ga75 ns75 0 ns74 0 0.0189959097594
Ca76 ns76 0 1e-12
Ca77 ns77 0 1e-12
Ra76 ns76 0 94938.5617279
Ra77 ns77 0 94938.5617279
Ga76 ns76 0 ns77 0 -0.0112494522375
Ga77 ns77 0 ns76 0 0.0112494522375
Ca78 ns78 0 1e-12
Ca79 ns79 0 1e-12
Ra78 ns78 0 511086.079562
Ra79 ns79 0 511086.079562
Ga78 ns78 0 ns79 0 -0.0184372650927
Ga79 ns79 0 ns78 0 0.0184372650927
Ca80 ns80 0 1e-12
Ca81 ns81 0 1e-12
Ra80 ns80 0 7177.68906059
Ra81 ns81 0 7177.68906059
Ga80 ns80 0 ns81 0 -0.0119777628568
Ga81 ns81 0 ns80 0 0.0119777628568
Ca82 ns82 0 1e-12
Ca83 ns83 0 1e-12
Ra82 ns82 0 20219.0798297
Ra83 ns83 0 20219.0798297
Ga82 ns82 0 ns83 0 -0.0177887543866
Ga83 ns83 0 ns82 0 0.0177887543866
Ca84 ns84 0 1e-12
Ca85 ns85 0 1e-12
Ra84 ns84 0 107116.544526
Ra85 ns85 0 107116.544526
Ga84 ns84 0 ns85 0 -0.0127388946344
Ga85 ns85 0 ns84 0 0.0127388946344
Ca86 ns86 0 1e-12
Ca87 ns87 0 1e-12
Ra86 ns86 0 6846.60682082
Ra87 ns87 0 6846.60682082
Ga86 ns86 0 ns87 0 -0.0130624957262
Ga87 ns87 0 ns86 0 0.0130624957262
Ca88 ns88 0 1e-12
Ca89 ns89 0 1e-12
Ra88 ns88 0 662.64221453
Ra89 ns89 0 662.64221453
Ga88 ns88 0 ns89 0 -0.0152278374644
Ga89 ns89 0 ns88 0 0.0152278374644
Ca90 ns90 0 1e-12
Ca91 ns91 0 1e-12
Ra90 ns90 0 8204.55120575
Ra91 ns91 0 8204.55120575
Ga90 ns90 0 ns91 0 -0.0170959627315
Ga91 ns91 0 ns90 0 0.0170959627315
Ca92 ns92 0 1e-12
Ca93 ns93 0 1e-12
Ra92 ns92 0 21542.4566038
Ra93 ns93 0 21542.4566038
Ga92 ns92 0 ns93 0 -0.0133632132203
Ga93 ns93 0 ns92 0 0.0133632132203
Ca94 ns94 0 1e-12
Ca95 ns95 0 1e-12
Ra94 ns94 0 19389.5817062
Ra95 ns95 0 19389.5817062
Ga94 ns94 0 ns95 0 -0.016641229343
Ga95 ns95 0 ns94 0 0.016641229343
Ca96 ns96 0 1e-12
Ca97 ns97 0 1e-12
Ra96 ns96 0 466816.362326
Ra97 ns97 0 466816.362326
Ga96 ns96 0 ns97 0 -0.0139346526386
Ga97 ns97 0 ns96 0 0.0139346526386
Ca98 ns98 0 1e-12
Ca99 ns99 0 1e-12
Ra98 ns98 0 57364.4799415
Ra99 ns99 0 57364.4799415
Ga98 ns98 0 ns99 0 -0.0164140841508
Ga99 ns99 0 ns98 0 0.0164140841508
Ca100 ns100 0 1e-12
Ca101 ns101 0 1e-12
Ra100 ns100 0 12369.1212843
Ra101 ns101 0 12369.1212843
Ga100 ns100 0 ns101 0 -0.0141187267674
Ga101 ns101 0 ns100 0 0.0141187267674
Ca102 ns102 0 1e-12
Ca103 ns103 0 1e-12
Ra102 ns102 0 26226.1438633
Ra103 ns103 0 26226.1438633
Ga102 ns102 0 ns103 0 -0.0162486247092
Ga103 ns103 0 ns102 0 0.0162486247092
Ca104 ns104 0 1e-12
Ca105 ns105 0 1e-12
Ra104 ns104 0 38894.6298891
Ra105 ns105 0 38894.6298891
Ga104 ns104 0 ns105 0 -0.0143513768917
Ga105 ns105 0 ns104 0 0.0143513768917
Ca106 ns106 0 1e-12
Ca107 ns107 0 1e-12
Ra106 ns106 0 54301.0420222
Ra107 ns107 0 54301.0420222
Ga106 ns106 0 ns107 0 -0.0160584964604
Ga107 ns107 0 ns106 0 0.0160584964604
Ca108 ns108 0 1e-12
Ca109 ns109 0 1e-12
Ra108 ns108 0 30407.4911153
Ra109 ns109 0 30407.4911153
Ga108 ns108 0 ns109 0 -0.0158831089181
Ga109 ns109 0 ns108 0 0.0158831089181
Ca110 ns110 0 1e-12
Ca111 ns111 0 1e-12
Ra110 ns110 0 36082.5251191
Ra111 ns111 0 36082.5251191
Ga110 ns110 0 ns111 0 -0.015700976912
Ga111 ns111 0 ns110 0 0.015700976912
Ca112 ns112 0 1e-12
Ca113 ns113 0 1e-12
Ra112 ns112 0 14669.6016167
Ra113 ns113 0 14669.6016167
Ga112 ns112 0 ns113 0 -0.0153890538212
Ga113 ns113 0 ns112 0 0.0153890538212
Ca114 ns114 0 1e-12
Ca115 ns115 0 1e-12
Ra114 ns114 0 25452.1231145
Ra115 ns115 0 25452.1231145
Ga114 ns114 0 ns115 0 -0.0148909074774
Ga115 ns115 0 ns114 0 0.0148909074774
Ca116 ns116 0 1e-12
Ca117 ns117 0 1e-12
Ra116 ns116 0 36037.3357493
Ra117 ns117 0 36037.3357493
Ga116 ns116 0 ns117 0 -0.0152212121507
Ga117 ns117 0 ns116 0 0.0152212121507
Ca118 ns118 0 1e-12
Ca119 ns119 0 1e-12
Ra118 ns118 0 77688.1889847
Ra119 ns119 0 77688.1889847
Ga118 ns118 0 ns119 0 -0.0147239419481
Ga119 ns119 0 ns118 0 0.0147239419481
Ca120 ns120 0 1e-12
Ca121 ns121 0 1e-12
Ra120 ns120 0 44973.4028613
Ra121 ns121 0 44973.4028613
Ga120 ns120 0 ns121 0 -0.0145609624138
Ga121 ns121 0 ns120 0 0.0145609624138
Ca122 ns122 0 1e-12
Ca123 ns123 0 1e-12
Ra122 ns122 0 46727.2790563
Ra123 ns123 0 46727.2790563
Ga122 ns122 0 ns123 0 -0.0150634790016
Ga123 ns123 0 ns122 0 0.0150634790016

Gb1_1 ns1 0 ni1 0 -0.0660850242102
Gb2_1 ns2 0 ni1 0 0.00229338217894
Gb3_1 ns3 0 ni1 0 0.0633053050375
Gb4_1 ns4 0 ni1 0 -0.0101297218225
Gb5_1 ns5 0 ni1 0 0.031802855654
Gb6_1 ns6 0 ni1 0 0.0623751500645
Gb7_1 ns7 0 ni1 0 -0.0227047622007
Gb8_1 ns8 0 ni1 0 0.0623946814988
Gb9_1 ns9 0 ni1 0 -0.0468373319521
Gb10_1 ns10 0 ni1 0 0.0206257292078
Gb11_1 ns11 0 ni1 0 0.0606242354544
Gb12_1 ns12 0 ni1 0 -0.0595687918317
Gb13_1 ns13 0 ni1 0 -0.0509625192074
Gb14_1 ns14 0 ni1 0 0.0593652370283
Gb15_1 ns15 0 ni1 0 -0.04196512011
Gb16_1 ns16 0 ni1 0 -0.0586038058874
Gb17_1 ns17 0 ni1 0 0.0300098406989
Gb18_1 ns18 0 ni1 0 0.058221085912
Gb19_1 ns19 0 ni1 0 -0.0248774289158
Gb20_1 ns20 0 ni1 0 0.0573520061173
Gb21_1 ns21 0 ni1 0 -0.00857506177346
Gb22_1 ns22 0 ni1 0 0.029061459898
Gb23_1 ns23 0 ni1 0 -0.0532624791845
Gb24_1 ns24 0 ni1 0 0.0487788937204
Gb25_1 ns25 0 ni1 0 -0.0554154046143
Gb26_1 ns26 0 ni1 0 -0.0311879596989
Gb27_1 ns27 0 ni1 0 -0.0564909752023
Gb28_1 ns28 0 ni1 0 0.0507263890432
Gb29_1 ns29 0 ni1 0 -0.0166029226273
Gb30_1 ns30 0 ni1 0 0.0534608919918
Gb31_1 ns31 0 ni1 0 -0.0308038384457
Gb32_1 ns32 0 ni1 0 0.0534996517477
Gb33_1 ns33 0 ni1 0 -0.0272451083845
Gb34_1 ns34 0 ni1 0 0.0397180811416
Gb35_1 ns35 0 ni1 0 0.0500439233217
Gb36_1 ns36 0 ni1 0 -0.0186074754024
Gb37_1 ns37 0 ni1 0 0.0486439143452
Gb38_1 ns38 0 ni1 0 0.0466229031135
Gb39_1 ns39 0 ni1 0 0.0134144557797
Gb40_1 ns40 0 ni1 0 0.0454401916911
Gb41_1 ns41 0 ni1 0 -0.0110180226302
Gb42_1 ns42 0 ni1 0 0.00184259284478
Gb43_1 ns43 0 ni1 0 -0.0423643504487
Gb44_1 ns44 0 ni1 0 0.0245985326031
Gb45_1 ns45 0 ni1 0 -0.0412884119872
Gb46_1 ns46 0 ni1 0 0.0280310339298
Gb47_1 ns47 0 ni1 0 0.0299263952748
Gb48_1 ns48 0 ni1 0 -0.0297311202681
Gb49_1 ns49 0 ni1 0 -0.0342048129313
Gb50_1 ns50 0 ni1 0 0.0195145151948
Gb51_1 ns51 0 ni1 0 -0.0330998821054
Gb52_1 ns52 0 ni1 0 0.0295753238711
Gb53_1 ns53 0 ni1 0 0.0320257282083
Gb54_1 ns54 0 ni1 0 -0.0279483165143
Gb55_1 ns55 0 ni1 0 -0.00547238574311
Gb56_1 ns56 0 ni1 0 0.024255127057
Gb57_1 ns57 0 ni1 0 0.027528215707