**************************************************
* Manufacturer:           Würth Elektronik
* Kinds:                  Super Tiny Signal Transformer 
* Matchcode:              WE-STST 
* Library Type:           LTspice
* Version:                rev24a
* Created/modified by:    Ella      
* Date and Time:          2024-01-23
* Team:                   eiSos EDA Service  
* Contact:                libraries@we-online.com
**************************************************
* Copyright(C) 2024 Würth Elektronik eiSos GmbH & Co. KG
* All Rights Reserved.
**************************************************
* Disclaimer: While Würth Elektronik eiSos has made every reasonable effort to ensure the accuracy
* of the simulation models provided, Würth Elektronik eiSos does not guarantee the exemption of error on
* the simulation models, nor does Würth Elektronik eiSos guarantee that the simulation model is current.
* Würth Elektronik eiSos reserves the right to make any adjustments at any time without notice.
* Würth Elektronik eiSos expressly disclaims all implied warranties regarding this simulation model.
**************************************************
.subckt 4532_74930000_350uH 1 2 3 4 5 6 7
Vam1 1 n2 dc 0
Rport1 n2 0 50
Vam2 2 n4 dc 0
Rport2 n4 0 50
Vam3 3 n6 dc 0
Rport3 n6 0 50
Vam4 4 n8 dc 0
Rport4 n8 0 50
Vam5 5 n10 dc 0
Rport5 n10 0 50
Vam6 6 n12 dc 0
Rport6 n12 0 50
Vam7 7 n14 dc 0
Rport7 n14 0 50

Fi1 0 ni1 Vam1 50
Gi1 0 ni1 1 0 1
Rt1 ni1 0 1
Fi2 0 ni2 Vam2 50
Gi2 0 ni2 2 0 1
Rt2 ni2 0 1
Fi3 0 ni3 Vam3 50
Gi3 0 ni3 3 0 1
Rt3 ni3 0 1
Fi4 0 ni4 Vam4 50
Gi4 0 ni4 4 0 1
Rt4 ni4 0 1
Fi5 0 ni5 Vam5 50
Gi5 0 ni5 5 0 1
Rt5 ni5 0 1
Fi6 0 ni6 Vam6 50
Gi6 0 ni6 6 0 1
Rt6 ni6 0 1
Fi7 0 ni7 Vam7 50
Gi7 0 ni7 7 0 1
Rt7 ni7 0 1

Ca1 ns1 0 1e-012
Ra1 ns1 0 13955760.6143
Ca2 ns2 0 1e-012
Ra2 ns2 0 6630992.50545
Ca3 ns3 0 1e-012
Ra3 ns3 0 1959589.43377
Ca4 ns4 0 1e-012
Ra4 ns4 0 12765.4123629
Ca5 ns5 0 1e-012
Ca6 ns6 0 1e-012
Ra5 ns5 0 18280.0654234
Ra6 ns6 0 18280.0654234
Ga5 ns5 0 ns6 0 -0.000323024515496
Ga6 ns6 0 ns5 0 0.000323024515496
Ca7 ns7 0 1e-012
Ra7 ns7 0 2312.99321409
Ca8 ns8 0 1e-012
Ca9 ns9 0 1e-012
Ra8 ns8 0 6432.05249422
Ra9 ns9 0 6432.05249422
Ga8 ns8 0 ns9 0 -0.00120290260546
Ga9 ns9 0 ns8 0 0.00120290260546
Ca10 ns10 0 1e-012
Ca11 ns11 0 1e-012
Ra10 ns10 0 472.918621535
Ra11 ns11 0 472.918621535
Ga10 ns10 0 ns11 0 -0.000275059842191
Ga11 ns11 0 ns10 0 0.000275059842191
Ca12 ns12 0 1e-012
Ca13 ns13 0 1e-012
Ra12 ns12 0 3129.11382128
Ra13 ns13 0 3129.11382128
Ga12 ns12 0 ns13 0 -0.00253660557296
Ga13 ns13 0 ns12 0 0.00253660557296
Ca14 ns14 0 1e-012
Ca15 ns15 0 1e-012
Ra14 ns14 0 1725.30307653
Ra15 ns15 0 1725.30307653
Ga14 ns14 0 ns15 0 -0.00428745380541
Ga15 ns15 0 ns14 0 0.00428745380541
Ca16 ns16 0 1e-012
Ca17 ns17 0 1e-012
Ra16 ns16 0 399.537605641
Ra17 ns17 0 399.537605641
Ga16 ns16 0 ns17 0 -0.0036122870212
Ga17 ns17 0 ns16 0 0.0036122870212
Ca18 ns18 0 1e-012
Ca19 ns19 0 1e-012
Ra18 ns18 0 654.657360768
Ra19 ns19 0 654.657360768
Ga18 ns18 0 ns19 0 -0.00550468680432
Ga19 ns19 0 ns18 0 0.00550468680432
Ca20 ns20 0 1e-012
Ca21 ns21 0 1e-012
Ra20 ns20 0 629.829006356
Ra21 ns21 0 629.829006356
Ga20 ns20 0 ns21 0 -0.00679435560345
Ga21 ns21 0 ns20 0 0.00679435560345
Ca22 ns22 0 1e-012
Ra22 ns22 0 13955760.6143
Ca23 ns23 0 1e-012
Ra23 ns23 0 6630992.50545
Ca24 ns24 0 1e-012
Ra24 ns24 0 1959589.43377
Ca25 ns25 0 1e-012
Ra25 ns25 0 12765.4123629
Ca26 ns26 0 1e-012
Ca27 ns27 0 1e-012
Ra26 ns26 0 18280.0654234
Ra27 ns27 0 18280.0654234
Ga26 ns26 0 ns27 0 -0.000323024515496
Ga27 ns27 0 ns26 0 0.000323024515496
Ca28 ns28 0 1e-012
Ra28 ns28 0 2312.99321409
Ca29 ns29 0 1e-012
Ca30 ns30 0 1e-012
Ra29 ns29 0 6432.05249422
Ra30 ns30 0 6432.05249422
Ga29 ns29 0 ns30 0 -0.00120290260546
Ga30 ns30 0 ns29 0 0.00120290260546
Ca31 ns31 0 1e-012
Ca32 ns32 0 1e-012
Ra31 ns31 0 472.918621535
Ra32 ns32 0 472.918621535
Ga31 ns31 0 ns32 0 -0.000275059842191
Ga32 ns32 0 ns31 0 0.000275059842191
Ca33 ns33 0 1e-012
Ca34 ns34 0 1e-012
Ra33 ns33 0 3129.11382128
Ra34 ns34 0 3129.11382128
Ga33 ns33 0 ns34 0 -0.00253660557296
Ga34 ns34 0 ns33 0 0.00253660557296
Ca35 ns35 0 1e-012
Ca36 ns36 0 1e-012
Ra35 ns35 0 1725.30307653
Ra36 ns36 0 1725.30307653
Ga35 ns35 0 ns36 0 -0.00428745380541
Ga36 ns36 0 ns35 0 0.00428745380541
Ca37 ns37 0 1e-012
Ca38 ns38 0 1e-012
Ra37 ns37 0 399.537605641
Ra38 ns38 0 399.537605641
Ga37 ns37 0 ns38 0 -0.0036122870212
Ga38 ns38 0 ns37 0 0.0036122870212
Ca39 ns39 0 1e-012
Ca40 ns40 0 1e-012
Ra39 ns39 0 654.657360768
Ra40 ns40 0 654.657360768
Ga39 ns39 0 ns40 0 -0.00550468680432
Ga40 ns40 0 ns39 0 0.00550468680432
Ca41 ns41 0 1e-012
Ca42 ns42 0 1e-012
Ra41 ns41 0 629.829006356
Ra42 ns42 0 629.829006356
Ga41 ns41 0 ns42 0 -0.00679435560345
Ga42 ns42 0 ns41 0 0.00679435560345
Ca43 ns43 0 1e-012
Ra43 ns43 0 13955760.6143
Ca44 ns44 0 1e-012
Ra44 ns44 0 6630992.50545
Ca45 ns45 0 1e-012
Ra45 ns45 0 1959589.43377
Ca46 ns46 0 1e-012
Ra46 ns46 0 12765.4123629
Ca47 ns47 0 1e-012
Ca48 ns48 0 1e-012
Ra47 ns47 0 18280.0654234
Ra48 ns48 0 18280.0654234
Ga47 ns47 0 ns48 0 -0.000323024515496
Ga48 ns48 0 ns47 0 0.000323024515496
Ca49 ns49 0 1e-012
Ra49 ns49 0 2312.99321409
Ca50 ns50 0 1e-012
Ca51 ns51 0 1e-012
Ra50 ns50 0 6432.05249422
Ra51 ns51 0 6432.05249422
Ga50 ns50 0 ns51 0 -0.00120290260546
Ga51 ns51 0 ns50 0 0.00120290260546
Ca52 ns52 0 1e-012
Ca53 ns53 0 1e-012
Ra52 ns52 0 472.918621535
Ra53 ns53 0 472.918621535
Ga52 ns52 0 ns53 0 -0.000275059842191
Ga53 ns53 0 ns52 0 0.000275059842191
Ca54 ns54 0 1e-012
Ca55 ns55 0 1e-012
Ra54 ns54 0 3129.11382128
Ra55 ns55 0 3129.11382128
Ga54 ns54 0 ns55 0 -0.00253660557296
Ga55 ns55 0 ns54 0 0.00253660557296
Ca56 ns56 0 1e-012
Ca57 ns57 0 1e-012
Ra56 ns56 0 1725.30307653
Ra57 ns57 0 1725.30307653
Ga56 ns56 0 ns57 0 -0.00428745380541
Ga57 ns57 0 ns56 0 0.00428745380541
Ca58 ns58 0 1e-012
Ca59 ns59 0 1e-012
Ra58 ns58 0 399.537605641
Ra59 ns59 0 399.537605641
Ga58 ns58 0 ns59 0 -0.0036122870212
Ga59 ns59 0 ns58 0 0.0036122870212
Ca60 ns60 0 1e-012
Ca61 ns61 0 1e-012
Ra60 ns60 0 654.657360768
Ra61 ns61 0 654.657360768
Ga60 ns60 0 ns61 0 -0.00550468680432
Ga61 ns61 0 ns60 0 0.00550468680432
Ca62 ns62 0 1e-012
Ca63 ns63 0 1e-012
Ra62 ns62 0 629.829006356
Ra63 ns63 0 629.829006356
Ga62 ns62 0 ns63 0 -0.00679435560345
Ga63 ns63 0 ns62 0 0.00679435560345
Ca64 ns64 0 1e-012
Ra64 ns64 0 13955760.6143
Ca65 ns65 0 1e-012
Ra65 ns65 0 6630992.50545
Ca66 ns66 0 1e-012
Ra66 ns66 0 1959589.43377
Ca67 ns67 0 1e-012
Ra67 ns67 0 12765.4123629
Ca68 ns68 0 1e-012
Ca69 ns69 0 1e-012
Ra68 ns68 0 18280.0654234
Ra69 ns69 0 18280.0654234
Ga68 ns68 0 ns69 0 -0.000323024515496
Ga69 ns69 0 ns68 0 0.000323024515496
Ca70 ns70 0 1e-012
Ra70 ns70 0 2312.99321409
Ca71 ns71 0 1e-012
Ca72 ns72 0 1e-012
Ra71 ns71 0 6432.05249422
Ra72 ns72 0 6432.05249422
Ga71 ns71 0 ns72 0 -0.00120290260546
Ga72 ns72 0 ns71 0 0.00120290260546
Ca73 ns73 0 1e-012
Ca74 ns74 0 1e-012
Ra73 ns73 0 472.918621535
Ra74 ns74 0 472.918621535
Ga73 ns73 0 ns74 0 -0.000275059842191
Ga74 ns74 0 ns73 0 0.000275059842191
Ca75 ns75 0 1e-012
Ca76 ns76 0 1e-012
Ra75 ns75 0 3129.11382128
Ra76 ns76 0 3129.11382128
Ga75 ns75 0 ns76 0 -0.00253660557296
Ga76 ns76 0 ns75 0 0.00253660557296
Ca77 ns77 0 1e-012
Ca78 ns78 0 1e-012
Ra77 ns77 0 1725.30307653
Ra78 ns78 0 1725.30307653
Ga77 ns77 0 ns78 0 -0.00428745380541
Ga78 ns78 0 ns77 0 0.00428745380541
Ca79 ns79 0 1e-012
Ca80 ns80 0 1e-012
Ra79 ns79 0 399.537605641
Ra80 ns80 0 399.537605641
Ga79 ns79 0 ns80 0 -0.0036122870212
Ga80 ns80 0 ns79 0 0.0036122870212
Ca81 ns81 0 1e-012
Ca82 ns82 0 1e-012
Ra81 ns81 0 654.657360768
Ra82 ns82 0 654.657360768
Ga81 ns81 0 ns82 0 -0.00550468680432
Ga82 ns82 0 ns81 0 0.00550468680432
Ca83 ns83 0 1e-012
Ca84 ns84 0 1e-012
Ra83 ns83 0 629.829006356
Ra84 ns84 0 629.829006356
Ga83 ns83 0 ns84 0 -0.00679435560345
Ga84 ns84 0 ns83 0 0.00679435560345
Ca85 ns85 0 1e-012
Ra85 ns85 0 13955760.6143
Ca86 ns86 0 1e-012
Ra86 ns86 0 6630992.50545
Ca87 ns87 0 1e-012
Ra87 ns87 0 1959589.43377
Ca88 ns88 0 1e-012
Ra88 ns88 0 12765.4123629
Ca89 ns89 0 1e-012
Ca90 ns90 0 1e-012
Ra89 ns89 0 18280.0654234
Ra90 ns90 0 18280.0654234
Ga89 ns89 0 ns90 0 -0.000323024515496
Ga90 ns90 0 ns89 0 0.000323024515496
Ca91 ns91 0 1e-012
Ra91 ns91 0 2312.99321409
Ca92 ns92 0 1e-012
Ca93 ns93 0 1e-012
Ra92 ns92 0 6432.05249422
Ra93 ns93 0 6432.05249422
Ga92 ns92 0 ns93 0 -0.00120290260546
Ga93 ns93 0 ns92 0 0.00120290260546
Ca94 ns94 0 1e-012
Ca95 ns95 0 1e-012
Ra94 ns94 0 472.918621535
Ra95 ns95 0 472.918621535
Ga94 ns94 0 ns95 0 -0.000275059842191
Ga95 ns95 0 ns94 0 0.000275059842191
Ca96 ns96 0 1e-012
Ca97 ns97 0 1e-012
Ra96 ns96 0 3129.11382128
Ra97 ns97 0 3129.11382128
Ga96 ns96 0 ns97 0 -0.00253660557296
Ga97 ns97 0 ns96 0 0.00253660557296
Ca98 ns98 0 1e-012
Ca99 ns99 0 1e-012
Ra98 ns98 0 1725.30307653
Ra99 ns99 0 1725.30307653
Ga98 ns98 0 ns99 0 -0.00428745380541
Ga99 ns99 0 ns98 0 0.00428745380541
Ca100 ns100 0 1e-012
Ca101 ns101 0 1e-012
Ra100 ns100 0 399.537605641
Ra101 ns101 0 399.537605641
Ga100 ns100 0 ns101 0 -0.0036122870212
Ga101 ns101 0 ns100 0 0.0036122870212
Ca102 ns102 0 1e-012
Ca103 ns103 0 1e-012
Ra102 ns102 0 654.657360768
Ra103 ns103 0 654.657360768
Ga102 ns102 0 ns103 0 -0.00550468680432
Ga103 ns103 0 ns102 0 0.00550468680432
Ca104 ns104 0 1e-012
Ca105 ns105 0 1e-012
Ra104 ns104 0 629.829006356
Ra105 ns105 0 629.829006356
Ga104 ns104 0 ns105 0 -0.00679435560345
Ga105 ns105 0 ns104 0 0.00679435560345
Ca106 ns106 0 1e-012
Ra106 ns106 0 13955760.6143
Ca107 ns107 0 1e-012
Ra107 ns107 0 6630992.50545
Ca108 ns108 0 1e-012
Ra108 ns108 0 1959589.43377
Ca109 ns109 0 1e-012
Ra109 ns109 0 12765.4123629
Ca110 ns110 0 1e-012
Ca111 ns111 0 1e-012
Ra110 ns110 0 18280.0654234
Ra111 ns111 0 18280.0654234
Ga110 ns110 0 ns111 0 -0.000323024515496
Ga111 ns111 0 ns110 0 0.000323024515496
Ca112 ns112 0 1e-012
Ra112 ns112 0 2312.99321409
Ca113 ns113 0 1e-012
Ca114 ns114 0 1e-012
Ra113 ns113 0 6432.05249422
Ra114 ns114 0 6432.05249422
Ga113 ns113 0 ns114 0 -0.00120290260546
Ga114 ns114 0 ns113 0 0.00120290260546
Ca115 ns115 0 1e-012
Ca116 ns116 0 1e-012
Ra115 ns115 0 472.918621535
Ra116 ns116 0 472.918621535
Ga115 ns115 0 ns116 0 -0.000275059842191
Ga116 ns116 0 ns115 0 0.000275059842191
Ca117 ns117 0 1e-012
Ca118 ns118 0 1e-012
Ra117 ns117 0 3129.11382128
Ra118 ns118 0 3129.11382128
Ga117 ns117 0 ns118 0 -0.00253660557296
Ga118 ns118 0 ns117 0 0.00253660557296
Ca119 ns119 0 1e-012
Ca120 ns120 0 1e-012
Ra119 ns119 0 1725.30307653
Ra120 ns120 0 1725.30307653
Ga119 ns119 0 ns120 0 -0.00428745380541
Ga120 ns120 0 ns119 0 0.00428745380541
Ca121 ns121 0 1e-012
Ca122 ns122 0 1e-012
Ra121 ns121 0 399.537605641
Ra122 ns122 0 399.537605641
Ga121 ns121 0 ns122 0 -0.0036122870212
Ga122 ns122 0 ns121 0 0.0036122870212
Ca123 ns123 0 1e-012
Ca124 ns124 0 1e-012
Ra123 ns123 0 654.657360768
Ra124 ns124 0 654.657360768
Ga123 ns123 0 ns124 0 -0.00550468680432
Ga124 ns124 0 ns123 0 0.00550468680432
Ca125 ns125 0 1e-012
Ca126 ns126 0 1e-012
Ra125 ns125 0 629.829006356
Ra126 ns126 0 629.829006356
Ga125 ns125 0 ns126 0 -0.00679435560345
Ga126 ns126 0 ns125 0 0.00679435560345
Ca127 ns127 0 1e-012
Ra127 ns127 0 13955760.6143
Ca128 ns128 0 1e-012
Ra128 ns128 0 6630992.50545
Ca129 ns129 0 1e-012
Ra129 ns129 0 1959589.43377
Ca130 ns130 0 1e-012
Ra130 ns130 0 12765.4123629
Ca131 ns131 0 1e-012
Ca132 ns132 0 1e-012
Ra131 ns131 0 18280.0654234
Ra132 ns132 0 18280.0654234
Ga131 ns131 0 ns132 0 -0.000323024515496
Ga132 ns132 0 ns131 0 0.000323024515496
Ca133 ns133 0 1e-012
Ra133 ns133 0 2312.99321409
Ca134 ns134 0 1e-012
Ca135 ns135 0 1e-012
Ra134 ns134 0 6432.05249422
Ra135 ns135 0 6432.05249422
Ga134 ns134 0 ns135 0 -0.00120290260546
Ga135 ns135 0 ns134 0 0.00120290260546
Ca136 ns136 0 1e-012
Ca137 ns137 0 1e-012
Ra136 ns136 0 472.918621535
Ra137 ns137 0 472.918621535
Ga136 ns136 0 ns137 0 -0.000275059842191
Ga137 ns137 0 ns136 0 0.000275059842191
Ca138 ns138 0 1e-012
Ca139 ns139 0 1e-012
Ra138 ns138 0 3129.11382128
Ra139 ns139 0 3129.11382128
Ga138 ns138 0 ns139 0 -0.00253660557296
Ga139 ns139 0 ns138 0 0.00253660557296
Ca140 ns140 0 1e-012
Ca141 ns141 0 1e-012
Ra140 ns140 0 1725.30307653
Ra141 ns141 0 1725.30307653
Ga140 ns140 0 ns141 0 -0.00428745380541
Ga141 ns141 0 ns140 0 0.00428745380541
Ca142 ns142 0 1e-012
Ca143 ns143 0 1e-012
Ra142 ns142 0 399.537605641
Ra143 ns143 0 399.537605641
Ga142 ns142 0 ns143 0 -0.0036122870212
Ga143 ns143 0 ns142 0 0.0036122870212
Ca144 ns144 0 1e-012
Ca145 ns145 0 1e-012
Ra144 ns144 0 654.657360768
Ra145 ns145 0 654.657360768
Ga144 ns144 0 ns145 0 -0.00550468680432
Ga145 ns145 0 ns144 0 0.00550468680432
Ca146 ns146 0 1e-012
Ca147 ns147 0 1e-012
Ra146 ns146 0 629.829006356
Ra147 ns147 0 629.829006356
Ga146 ns146 0 ns147 0 -0.00679435560345
Ga147 ns147 0 ns146 0 0.00679435560345

Gb1_1 ns1 0 ni1 0 7.16549980786e-008
Gb2_1 ns2 0 ni1 0 1.50806986914e-007
Gb3_1 ns3 0 ni1 0 5.10310977782e-007
Gb4_1 ns4 0 ni1 0 7.83366781716e-005
Gb5_1 ns5 0 ni1 0 0.000332288739016
Gb7_1 ns7 0 ni1 0 0.000432340222145
Gb8_1 ns8 0 ni1 0 0.00122299678943
Gb10_1 ns10 0 ni1 0 0.00215030874194
Gb12_1 ns12 0 ni1 0 0.00257686840654
Gb14_1 ns14 0 ni1 0 0.00436580935347
Gb16_1 ns16 0 ni1 0 0.00534649996754
Gb18_1 ns18 0 ni1 0 0.00592856324127
Gb20_1 ns20 0 ni1 0 0.00716538336903
Gb22_2 ns22 0 ni2 0 7.16549980786e-008
Gb23_2 ns23 0 ni2 0 1.50806986914e-007
Gb24_2 ns24 0 ni2 0 5.10310977782e-007
Gb25_2 ns25 0 ni2 0 7.83366781716e-005
Gb26_2 ns26 0 ni2 0 0.000332288739016
Gb28_2 ns28 0 ni2 0 0.000432340222145
Gb29_2 ns29 0 ni2 0 0.00122299678943
Gb31_2 ns31 0 ni2 0 0.00215030874194
Gb33_2 ns33 0 ni2 0 0.00257686840654
Gb35_2 ns35 0 ni2 0 0.00436580935347
Gb37_2 ns37 0 ni2 0 0.00534649996754
Gb39_2 ns39 0 ni2 0 0.00592856324127
Gb41_2 ns41 0 ni2 0 0.00716538336903
Gb43_3 ns43 0 ni3 0 7.16549980786e-008
Gb44_3 ns44 0 ni3 0 1.50806986914e-007
Gb45_3 ns45 0 ni3 0 5.10310977782e-007
Gb46_3 ns46 0 ni3 0 7.83366781716e-005
Gb47_3 ns47 0 ni3 0 0.000332288739016
Gb49_3 ns49 0 ni3 0 0.000432340222145
Gb50_3 ns50 0 ni3 0 0.00122299678943
Gb52_3 ns52 0 ni3 0 0.00215030874194
Gb54_3 ns54 0 ni3 0 0.00257686840654
Gb56_3 ns56 0 ni3 0 0.00436580935347
Gb58_3 ns58 0 ni3 0 0.00534649996754
Gb60_3 ns60 0 ni3 0 0.00592856324127
Gb62_3 ns62 0 ni3 0 0.00716538336903
Gb64_4 ns64 0 ni4 0 7.16549980786e-008
Gb65_4 ns65 0 ni4 0 1.50806986914e-007
Gb66_4 ns66 0 ni4 0 5.10310977782e-007
Gb67_4 ns67 0 ni4 0 7.83366781716e-005
Gb68_4 ns68 0 ni4 0 0.000332288739016
Gb70_4 ns70 0 ni4 0 0.000432340222145
Gb71_4 ns71 0 ni4 0 0.00122299678943
Gb73_4 ns73 0 ni4 0 0.00215030874194
Gb75_4 ns75 0 ni4 0 0.00257686840654
Gb77_4 ns77 0 ni4 0 0.00436580935347
Gb79_4 ns79 0 ni4 0 0.00534649996754
Gb81_4 ns81 0 ni4 0 0.00592856324127
Gb83_4 ns83 0 ni4 0 0.00716538336903
Gb85_5 ns85 0 ni5 0 7.16549980786e-008
Gb86_5 ns86 0 ni5 0 1.50806986914e-007
Gb87_5 ns87 0 ni5 0 5.10310977782e-007
Gb88_5 ns88 0 ni5 0 7.83366781716e-005
Gb89_5 ns89 0 ni5 0 0.000332288739016
Gb91_5 ns91 0 ni5 0 0.000432340222145
Gb92_5 ns92 0 ni5 0 0.00122299678943
Gb94_5 ns94 0 ni5 0 0.00215030874194
Gb96_5 ns96 0 ni5 0 0.00257686840654
Gb98_5 ns98 0 ni5 0 0.00436580935347
Gb100_5 ns100 0 ni5 0 0.00534649996754
Gb102_5 ns102 0 ni5 0 0.00592856324127
Gb104_5 ns104 0 ni5 0 0.00716538336903
Gb106_6 ns106 0 ni6 0 7.16549980786e-008
Gb107_6 ns107 0 ni6 0 1.50806986914e-007
Gb108_6 ns108 0 ni6 0 5.10310977782e-007
Gb109_6 ns109 0 ni6 0 7.83366781716e-005
Gb110_6 ns110 0 ni6 0 0.000332288739016
Gb112_6 ns112 0 ni6 0 0.000432340222145
Gb113_6 ns113 0 ni6 0 0.00122299678943
Gb115_6 ns115 0 ni6 0 0.00215030874194
Gb117_6 ns117 0 ni6 0 0.00257686840654
Gb119_6 ns119 0 ni6 0 0.00436580935347
Gb121_6 ns121 0 ni6 0 0.00534649996754
Gb123_6 ns123 0 ni6 0 0.00592856324127
Gb125_6 ns125 0 ni6 0 0.00716538336903
Gb127_7 ns127 0 ni7 0 7.16549980786e-008
Gb128_7 ns128 0 ni7 0 1.50806986914e-007
Gb129_7 ns129 0 ni7 0 5.10310977782e-007
Gb130_7 ns130 0 ni7 0 7.83366781716e-005
Gb131_7 ns131 0 ni7 0 0.000332288739016
Gb133_7 ns133 0 ni7 0 0.000432340222145
Gb134_7 ns134 0 ni7 0 0.00122299678943
Gb136_7 ns136 0 ni7 0 0.00215030874194
Gb138_7 ns138 0 ni7 0 0.00257686840654
Gb140_7 ns140 0 ni7 0 0.00436580935347
Gb142_7 ns142 0 ni7 0 0.00534649996754
Gb144_7 ns144 0 ni7 0 0.00592856324127
Gb146_7 ns146 0 ni7 0 0.00716538336903

Gc1_1 0 n2 ns1 0 0.00420790162414
Gc1_2 0 n2 ns2 0 0.00784446816205
Gc1_3 0 n2 ns3 0 0.000600436351028
Gc1_4 0 n2 ns4 0 -1.06405263983e-005
Gc1_5 0 n2 ns5 0 0.000174140738364
Gc1_6 0 n2 ns6 0 -8.7632382325e-005
Gc1_7 0 n2 ns7 0 0.000756125738129
Gc1_8 0 n2 ns8 0 0.000839837949611
Gc1_9 0 n2 ns9 0 -0.000591771273954
Gc1_10 0 n2 ns10 0 0.0219487524678
Gc1_11 0 n2 ns11 0 0.0896879430355
Gc1_12 0 n2 ns12 0 0.000360663492482
Gc1_13 0 n2 ns13 0 4.61631413459e-005
Gc1_14 0 n2 ns14 0 0.000134142362513
Gc1_15 0 n2 ns15 0 9.69864471785e-005
Gc1_16 0 n2 ns16 0 0.0155258270543
Gc1_17 0 n2 ns17 0 0.000304114723961
Gc1_18 0 n2 ns18 0 0.0052348882329
Gc1_19 0 n2 ns19 0 0.00956126554529
Gc1_20 0 n2 ns20 0 -0.00584518356786
Gc1_21 0 n2 ns21 0 0.00552097971094
Gc1_22 0 n2 ns22 0 0.00019676679945
Gc1_23 0 n2 ns23 0 -0.000182989811711
Gc1_24 0 n2 ns24 0 3.4656441645e-005
Gc1_25 0 n2 ns25 0 -6.73602249304e-005
Gc1_26 0 n2 ns26 0 5.32000157394e-005
Gc1_27 0 n2 ns27 0 0.000186966579507
Gc1_28 0 n2 ns28 0 -0.000497200404617
Gc1_29 0 n2 ns29 0 0.000193846165427
Gc1_30 0 n2 ns30 0 -0.000245529534958
Gc1_31 0 n2 ns31 0 -0.0155199795052
Gc1_32 0 n2 ns32 0 0.0168445130542
Gc1_33 0 n2 ns33 0 6.79477910495e-005
Gc1_34 0 n2 ns34 0 0.000187454753984
Gc1_35 0 n2 ns35 0 -7.30233867256e-005
Gc1_36 0 n2 ns36 0 -0.000134069525521
Gc1_37 0 n2 ns37 0 -0.00171715626642
Gc1_38 0 n2 ns38 0 0.00118819846095
Gc1_39 0 n2 ns39 0 -0.00164544034639
Gc1_40 0 n2 ns40 0 -0.00473841466522
Gc1_41 0 n2 ns41 0 0.00139029454146
Gc1_42 0 n2 ns42 0 -0.00190288414885
Gc1_43 0 n2 ns43 0 -0.00432587910208
Gc1_44 0 n2 ns44 0 -0.00770108972394
Gc1_45 0 n2 ns45 0 -0.000601557281366
Gc1_46 0 n2 ns46 0 3.962655168e-005
Gc1_47 0 n2 ns47 0 -0.000229170046438
Gc1_48 0 n2 ns48 0 -8.46487027998e-005
Gc1_49 0 n2 ns49 0 -8.98135910441e-005
Gc1_50 0 n2 ns50 0 -0.000548693022961
Gc1_51 0 n2 ns51 0 8.85551453548e-005
Gc1_52 0 n2 ns52 0 0.00925287519167
Gc1_53 0 n2 ns53 0 0.0766245049203
Gc1_54 0 n2 ns54 0 -0.000410077453817
Gc1_55 0 n2 ns55 0 -0.000350053840808
Gc1_56 0 n2 ns56 0 -0.000205512890963
Gc1_57 0 n2 ns57 0 -1.72586812273e-006
Gc1_58 0 n2 ns58 0 -0.00092035126553
Gc1_59 0 n2 ns59 0 -0.00632653282613
Gc1_60 0 n2 ns60 0 0.00192234321066
Gc1_61 0 n2 ns61 0 0.000787223352754
Gc1_62 0 n2 ns62 0 0.000881686791056
Gc1_63 0 n2 ns63 0 0.000881079711073
Gc1_64 0 n2 ns64 0 -0.00137225513308
Gc1_65 0 n2 ns65 0 -0.00496195573644
Gc1_66 0 n2 ns66 0 -0.000155423640209
Gc1_67 0 n2 ns67 0 -1.61410733589e-005
Gc1_68 0 n2 ns68 0 0.000137367658048
Gc1_69 0 n2 ns69 0 -0.000202857360049
Gc1_70 0 n2 ns70 0 0.000214678313054
Gc1_71 0 n2 ns71 0 -0.000459486130893
Gc1_72 0 n2 ns72 0 0.000316394696565
Gc1_73 0 n2 ns73 0 0.0174169284066
Gc1_74 0 n2 ns74 0 -0.00512746228571
Gc1_75 0 n2 ns75 0 3.97710340645e-005
Gc1_76 0 n2 ns76 0 -5.90036345657e-005
Gc1_77 0 n2 ns77 0 -8.73575397144e-005
Gc1_78 0 n2 ns78 0 0.000126094254049
Gc1_79 0 n2 ns79 0 -0.00444262400216
Gc1_80 0 n2 ns80 0 0.00101292621684
Gc1_81 0 n2 ns81 0 0.00132958803515
Gc1_82 0 n2 ns82 0 0.00387723109005
Gc1_83 0 n2 ns83 0 0.000448258020471
Gc1_84 0 n2 ns84 0 0.0024656385274
Gc1_85 0 n2 ns85 0 0.00130832813548
Gc1_86 0 n2 ns86 0 0.00501890433238
Gc1_87 0 n2 ns87 0 0.000175744723541
Gc1_88 0 n2 ns88 0 2.94574332562e-005
Gc1_89 0 n2 ns89 0 0.000437258409352
Gc1_90 0 n2 ns90 0 9.07207017851e-005
Gc1_91 0 n2 ns91 0 -0.00016169423289
Gc1_92 0 n2 ns92 0 0.000418146040708
Gc1_93 0 n2 ns93 0 0.000288094332352
Gc1_94 0 n2 ns94 0 -0.000395538282437
Gc1_95 0 n2 ns95 0 -0.0354158161721
Gc1_96 0 n2 ns96 0 0.000431114734114
Gc1_97 0 n2 ns97 0 0.00010327912579
Gc1_98 0 n2 ns98 0 0.000297334621926
Gc1_99 0 n2 ns99 0 -0.00014920351339
Gc1_100 0 n2 ns100 0 -0.00607812865371
Gc1_101 0 n2 ns101 0 0.00702040181281
Gc1_102 0 n2 ns102 0 -0.00443229810625
Gc1_103 0 n2 ns103 0 -0.00264279011067
Gc1_104 0 n2 ns104 0 0.00102082532834
Gc1_105 0 n2 ns105 0 -0.00301801308452
Gc1_106 0 n2 ns106 0 -0.00129996744421
Gc1_107 0 n2 ns107 0 -0.00498082416837
Gc1_108 0 n2 ns108 0 -0.000190607518117
Gc1_109 0 n2 ns109 0 5.72466767805e-005
Gc1_110 0 n2 ns110 0 -0.000322942310048
Gc1_111 0 n2 ns111 0 0.000231283271321
Gc1_112 0 n2 ns112 0 0.000403119264853
Gc1_113 0 n2 ns113 0 -0.000656585213985
Gc1_114 0 n2 ns114 0 0.00012747254434
Gc1_115 0 n2 ns115 0 0.00441895042181
Gc1_116 0 n2 ns116 0 -0.0370490747507
Gc1_117 0 n2 ns117 0 -0.000281073248117
Gc1_118 0 n2 ns118 0 0.000181410970177
Gc1_119 0 n2 ns119 0 -0.000113105152241
Gc1_120 0 n2 ns120 0 0.000259636450442
Gc1_121 0 n2 ns121 0 0.00439033016254
Gc1_122 0 n2 ns122 0 0.00282569762839
Gc1_123 0 n2 ns123 0 0.000543556848177
Gc1_124 0 n2 ns124 0 -0.00276992907275
Gc1_125 0 n2 ns125 0 4.15562778963e-005
Gc1_126 0 n2 ns126 0 0.00305314843441
Gc1_127 0 n2 ns127 0 0.00124786830268
Gc1_128 0 n2 ns128 0 0.00504113838694
Gc1_129 0 n2 ns129 0 0.000180027608244
Gc1_130 0 n2 ns130 0 -4.60592538806e-005
Gc1_131 0 n2 ns131 0 -0.000250237168919
Gc1_132 0 n2 ns132 0 -0.000128781754059
Gc1_133 0 n2 ns133 0 -0.000450841547179
Gc1_134 0 n2 ns134 0 0.000200656969
Gc1_135 0 n2 ns135 0 3.14104165226e-005
Gc1_136 0 n2 ns136 0 -0.022069618824
Gc1_137 0 n2 ns137 0 -0.068326885139
Gc1_138 0 n2 ns138 0 -0.000196805567046
Gc1_139 0 n2 ns139 0 -0.000175077118776
Gc1_140 0 n2 ns140 0 0.000204207001156
Gc1_141 0 n2 ns141 0 2.93444235983e-006
Gc1_142 0 n2 ns142 0 0.00500813228059
Gc1_143 0 n2 ns143 0 -0.00324075525698
Gc1_144 0 n2 ns144 0 0.00133846769565
Gc1_145 0 n2 ns145 0 0.000252895101554
Gc1_146 0 n2 ns146 0 -0.00109978861485
Gc1_147 0 n2 ns147 0 -0.000171046362302
Gd1_1 0 n2 ni1 0 0.0141260601036
Gd1_2 0 n2 ni2 0 -0.000940819076534
Gd1_3 0 n2 ni3 0 0.00408453021482
Gd1_4 0 n2 ni4 0 0.00160040002345
Gd1_5 0 n2 ni5 0 0.00391790454575
Gd1_6 0 n2 ni6 0 0.00232258825249
Gd1_7 0 n2 ni7 0 -0.000201340064309
Gc2_1 0 n4 ns1 0 1.11253015462e-005
Gc2_2 0 n4 ns2 0 -1.34352944637e-005
Gc2_3 0 n4 ns3 0 1.15365546308e-005
Gc2_4 0 n4 ns4 0 -6.62999547854e-005
Gc2_5 0 n4 ns5 0 5.31758121667e-005
Gc2_6 0 n4 ns6 0 0.000187376795175
Gc2_7 0 n4 ns7 0 -0.000494007623723
Gc2_8 0 n4 ns8 0 0.000193475003245
Gc2_9 0 n4 ns9 0 -0.000245685119781
Gc2_10 0 n4 ns10 0 -0.0154901170352
Gc2_11 0 n4 ns11 0 0.0169463005734
Gc2_12 0 n4 ns12 0 6.87166683716e-005
Gc2_13 0 n4 ns13 0 0.000187180845483
Gc2_14 0 n4 ns14 0 -7.44071410639e-005
Gc2_15 0 n4 ns15 0 -0.000133690077991
Gc2_16 0 n4 ns16 0 -0.00171133218861
Gc2_17 0 n4 ns17 0 0.00120037872076
Gc2_18 0 n4 ns18 0 -0.00164546382977
Gc2_19 0 n4 ns19 0 -0.00473603435501
Gc2_20 0 n4 ns20 0 0.00138839012824
Gc2_21 0 n4 ns21 0 -0.00190092868751
Gc2_22 0 n4 ns22 0 7.59600101976e-006
Gc2_23 0 n4 ns23 0 -1.77323033634e-005
Gc2_24 0 n4 ns24 0 1.60568772198e-005
Gc2_25 0 n4 ns25 0 8.9199319271e-005
Gc2_26 0 n4 ns26 0 -0.000195485899965
Gc2_27 0 n4 ns27 0 -2.85858030968e-006
Gc2_28 0 n4 ns28 0 0.001443397567
Gc2_29 0 n4 ns29 0 5.41804958242e-006
Gc2_30 0 n4 ns30 0 -6.66392620915e-005
Gc2_31 0 n4 ns31 0 0.0162569445105
Gc2_32 0 n4 ns32 0 0.0482246939276
Gc2_33 0 n4 ns33 0 -5.14403867534e-005
Gc2_34 0 n4 ns34 0 3.70901211029e-005
Gc2_35 0 n4 ns35 0 -7.94226093745e-005
Gc2_36 0 n4 ns36 0 6.36533949997e-005
Gc2_37 0 n4 ns37 0 0.0150090106084
Gc2_38 0 n4 ns38 0 -0.00627468180126
Gc2_39 0 n4 ns39 0 0.00536396710882
Gc2_40 0 n4 ns40 0 0.00649825976863
Gc2_41 0 n4 ns41 0 -0.00171779289526
Gc2_42 0 n4 ns42 0 0.0062740303878
Gc2_43 0 n4 ns43 0 2.24119180119e-005
Gc2_44 0 n4 ns44 0 5.02208554845e-006
Gc2_45 0 n4 ns45 0 9.25893479106e-006
Gc2_46 0 n4 ns46 0 -6.65639505062e-005
Gc2_47 0 n4 ns47 0 0.000163057243815
Gc2_48 0 n4 ns48 0 -0.000205336974785
Gc2_49 0 n4 ns49 0 -0.000479362578611
Gc2_50 0 n4 ns50 0 -0.000146654754919
Gc2_51 0 n4 ns51 0 7.84927559105e-005
Gc2_52 0 n4 ns52 0 -0.0112373555933
Gc2_53 0 n4 ns53 0 0.0299106648298
Gc2_54 0 n4 ns54 0 1.02291974367e-005
Gc2_55 0 n4 ns55 0 -0.000310478663019
Gc2_56 0 n4 ns56 0 -8.69017770436e-005
Gc2_57 0 n4 ns57 0 0.000228024578357
Gc2_58 0 n4 ns58 0 -0.000537054372774
Gc2_59 0 n4 ns59 0 0.00393994762768
Gc2_60 0 n4 ns60 0 -0.00116887050654
Gc2_61 0 n4 ns61 0 -0.00313272825023
Gc2_62 0 n4 ns62 0 -0.000333796859202
Gc2_63 0 n4 ns63 0 -0.00306179646908
Gc2_64 0 n4 ns64 0 -5.51414305006e-007
Gc2_65 0 n4 ns65 0 1.82226300072e-005
Gc2_66 0 n4 ns66 0 -3.27033617136e-006
Gc2_67 0 n4 ns67 0 6.93427145607e-005
Gc2_68 0 n4 ns68 0 0.000152884615312
Gc2_69 0 n4 ns69 0 0.000199325137492
Gc2_70 0 n4 ns70 0 0.000237945727071
Gc2_71 0 n4 ns71 0 -0.000101701505711
Gc2_72 0 n4 ns72 0 0.000123162512784
Gc2_73 0 n4 ns73 0 0.00496516291013
Gc2_74 0 n4 ns74 0 -0.0299161290383
Gc2_75 0 n4 ns75 0 4.91490041889e-005
Gc2_76 0 n4 ns76 0 1.1794568176e-005
Gc2_77 0 n4 ns77 0 2.58946901029e-005
Gc2_78 0 n4 ns78 0 0.000200247283158
Gc2_79 0 n4 ns79 0 -0.00196415518392
Gc2_80 0 n4 ns80 0 0.00451200741107
Gc2_81 0 n4 ns81 0 -0.00186035917116
Gc2_82 0 n4 ns82 0 -0.00213630918232
Gc2_83 0 n4 ns83 0 -0.000258836140787
Gc2_84 0 n4 ns84 0 -0.000506978711962
Gc2_85 0 n4 ns85 0 -3.84807947165e-006
Gc2_86 0 n4 ns86 0 -1.09455715685e-005
Gc2_87 0 n4 ns87 0 -1.91722219921e-007
Gc2_88 0 n4 ns88 0 -3.74474783803e-005
Gc2_89 0 n4 ns89 0 -0.000227846312994
Gc2_90 0 n4 ns90 0 0.000406344001929
Gc2_91 0 n4 ns91 0 -0.000361672088202
Gc2_92 0 n4 ns92 0 0.000147628763436
Gc2_93 0 n4 ns93 0 4.0992545333e-005
Gc2_94 0 n4 ns94 0 0.00802894312714
Gc2_95 0 n4 ns95 0 -0.00337392255374
Gc2_96 0 n4 ns96 0 0.000110076121526
Gc2_97 0 n4 ns97 0 0.000235013047941
Gc2_98 0 n4 ns98 0 0.000128884582771
Gc2_99 0 n4 ns99 0 -0.00045260652563
Gc2_100 0 n4 ns100 0 -0.000490537198525
Gc2_101 0 n4 ns101 0 -0.00148143168063
Gc2_102 0 n4 ns102 0 0.00213993416988
Gc2_103 0 n4 ns103 0 0.00405751261711
Gc2_104 0 n4 ns104 0 -0.000542123023324
Gc2_105 0 n4 ns105 0 0.00355012082689
Gc2_106 0 n4 ns106 0 -1.26579667226e-006
Gc2_107 0 n4 ns107 0 1.8110303606e-006
Gc2_108 0 n4 ns108 0 -2.31888722244e-006
Gc2_109 0 n4 ns109 0 -5.25089652425e-005
Gc2_110 0 n4 ns110 0 -0.000124608965216
Gc2_111 0 n4 ns111 0 -0.000393136099749
Gc2_112 0 n4 ns112 0 -0.000456547234653
Gc2_113 0 n4 ns113 0 -0.000168589215811
Gc2_114 0 n4 ns114 0 9.2574216784e-005
Gc2_115 0 n4 ns115 0 0.00400928522417
Gc2_116 0 n4 ns116 0 -0.00634927953752
Gc2_117 0 n4 ns117 0 -0.000183891261797
Gc2_118 0 n4 ns118 0 -5.70925231934e-005
Gc2_119 0 n4 ns119 0 -3.13713156523e-005
Gc2_120 0 n4 ns120 0 0.000390101312886
Gc2_121 0 n4 ns121 0 0.000364760310382
Gc2_122 0 n4 ns122 0 -0.00218703832892
Gc2_123 0 n4 ns123 0 0.000905133514999
Gc2_124 0 n4 ns124 0 0.00405166027206
Gc2_125 0 n4 ns125 0 -0.000884761035905
Gc2_126 0 n4 ns126 0 0.00158992129005
Gc2_127 0 n4 ns127 0 3.64001590359e-008
Gc2_128 0 n4 ns128 0 -7.78432123337e-007
Gc2_129 0 n4 ns129 0 1.91917545404e-006
Gc2_130 0 n4 ns130 0 5.86421513093e-005
Gc2_131 0 n4 ns131 0 0.000200633568423
Gc2_132 0 n4 ns132 0 -0.00020618340244
Gc2_133 0 n4 ns133 0 0.000223669890335
Gc2_134 0 n4 ns134 0 5.63108696458e-005
Gc2_135 0 n4 ns135 0 -9.947274609e-006
Gc2_136 0 n4 ns136 0 0.00462058508942
Gc2_137 0 n4 ns137 0 -0.0268839732108
Gc2_138 0 n4 ns138 0 9.75839026955e-006
Gc2_139 0 n4 ns139 0 -0.000156308705411
Gc2_140 0 n4 ns140 0 0.00021697899974
Gc2_141 0 n4 ns141 0 -0.000151963888559
Gc2_142 0 n4 ns142 0 -0.00246532793528
Gc2_143 0 n4 ns143 0 0.00289058908703
Gc2_144 0 n4 ns144 0 -0.000866660638668
Gc2_145 0 n4 ns145 0 -0.00117488447455
Gc2_146 0 n4 ns146 0 -0.000393046485579
Gc2_147 0 n4 ns147 0 -0.000985317611217
Gd2_1 0 n4 ni1 0 -0.00093529364243
Gd2_2 0 n4 ni2 0 0.0101101336882
Gd2_3 0 n4 ni3 0 -0.000834404529161
Gd2_4 0 n4 ni4 0 0.00486067638896
Gd2_5 0 n4 ni5 0 0.00183663420682
Gd2_6 0 n4 ni6 0 0.00106460256
Gd2_7 0 n4 ni7 0 0.00622646583445
Gc3_1 0 n6 ns1 0 -0.00430522210897
Gc3_2 0 n6 ns2 0 -0.00773307678869
Gc3_3 0 n6 ns3 0 -0.000591268915807
Gc3_4 0 n6 ns4 0 3.65639633033e-005
Gc3_5 0 n6 ns5 0 -0.00022936327326
Gc3_6 0 n6 ns6 0 -8.45802962205e-005
Gc3_7 0 n6 ns7 0 -8.53625372415e-005
Gc3_8 0 n6 ns8 0 -0.000548944002587
Gc3_9 0 n6 ns9 0 8.83061622518e-005
Gc3_10 0 n6 ns10 0 0.00926599320934
Gc3_11 0 n6 ns11 0 0.076706724176
Gc3_12 0 n6 ns12 0 -0.000409522113511
Gc3_13 0 n6 ns13 0 -0.000349734765542
Gc3_14 0 n6 ns14 0 -0.000206031970451
Gc3_15 0 n6 ns15 0 -5.38289762141e-007
Gc3_16 0 n6 ns16 0 -0.000930199591342
Gc3_17 0 n6 ns17 0 -0.00631513573764
Gc3_18 0 n6 ns18 0 0.00191388342382
Gc3_19 0 n6 ns19 0 0.000781066862805
Gc3_20 0 n6 ns20 0 0.000883487230664
Gc3_21 0 n6 ns21 0 0.00087958985789
Gc3_22 0 n6 ns22 0 0.000202515585462
Gc3_23 0 n6 ns23 0 -0.000158831729928
Gc3_24 0 n6 ns24 0 3.17177109253e-005
Gc3_25 0 n6 ns25 0 -6.5861084832e-005
Gc3_26 0 n6 ns26 0 0.000163414560027
Gc3_27 0 n6 ns27 0 -0.000205490806752
Gc3_28 0 n6 ns28 0 -0.000489904870769
Gc3_29 0 n6 ns29 0 -0.000146469632909
Gc3_30 0 n6 ns30 0 7.85426645769e-005
Gc3_31 0 n6 ns31 0 -0.011327804842
Gc3_32 0 n6 ns32 0 0.0295651335101
Gc3_33 0 n6 ns33 0 1.11463562562e-005
Gc3_34 0 n6 ns34 0 -0.000310214757433
Gc3_35 0 n6 ns35 0 -8.71661457582e-005
Gc3_36 0 n6 ns36 0 0.000227934313527
Gc3_37 0 n6 ns37 0 -0.000553351079271
Gc3_38 0 n6 ns38 0 0.00389613787972
Gc3_39 0 n6 ns39 0 -0.00116063340246
Gc3_40 0 n6 ns40 0 -0.00314175160496
Gc3_41 0 n6 ns41 0 -0.000320695376948
Gc3_42 0 n6 ns42 0 -0.00306311443663
Gc3_43 0 n6 ns43 0 0.0043478650018
Gc3_44 0 n6 ns44 0 0.00771807429657
Gc3_45 0 n6 ns45 0 0.000583298843338
Gc3_46 0 n6 ns46 0 8.59910630198e-007
Gc3_47 0 n6 ns47 0 0.000104659037735
Gc3_48 0 n6 ns48 0 0.000305872467273
Gc3_49 0 n6 ns49 0 0.000665172604587
Gc3_50 0 n6 ns50 0 0.000260143019895
Gc3_51 0 n6 ns51 0 9.567929079e-005
Gc3_52 0 n6 ns52 0 0.0180604553115
Gc3_53 0 n6 ns53 0 0.0909522368758
Gc3_54 0 n6 ns54 0 0.000350068549139
Gc3_55 0 n6 ns55 0 0.000697316586184
Gc3_56 0 n6 ns56 0 0.00017998469291
Gc3_57 0 n6 ns57 0 0.000352803794088
Gc3_58 0 n6 ns58 0 0.00955856665848
Gc3_59 0 n6 ns59 0 -0.0034445412931
Gc3_60 0 n6 ns60 0 0.00394725705229