**************************************************
* Manufacturer:           Würth Elektronik
* Kinds:                  Power TVS Diode
* Matchcode:              WE-TVSP
* Library Type:           LTspice
* Version:                rev26a
* Created/modified by:    Ella
* Date and Time:          3/24/2026
* Team:                   eiSos EDA Service  
* Contact:                libraries@we-online.com
**************************************************
* Copyright(C) 2026 Würth Elektronik eiSos GmbH & Co. KG
* All Rights Reserved.
**************************************************
* Disclaimer: While Würth Elektronik eiSos has made every reasonable effort to ensure the accuracy
* of the simulation models provided, Würth Elektronik eiSos does not guarantee the exemption of error on
* the simulation models, nor does Würth Elektronik eiSos guarantee that the simulation model is current.
* Würth Elektronik eiSos reserves the right to make any adjustments at any time without notice.
* Würth Elektronik eiSos expressly disclaims all implied warranties regarding this simulation model.
**************************************************
.subckt DO-214AA_824521101 1 2
D1 1 3 DTVS
D2 2 3 DTVS
Rleak 1 2 1Meg
.MODEL DTVS D (IS=0.00001 N=1.5 RS=0.15014164305949 IBV=1m BV=11.7 CJO=1375.15p)
.ends DO-214AA_824521101
*******
.subckt DO-214AA_824521102 1 2
D1 1 3 DTVS
D2 2 3 DTVS
Rleak 1 2 100Meg
.MODEL DTVS D (IS=0.00001 N=1.5 RS=12.1621621621622 IBV=1m BV=117 CJO=115.49p)
.ends DO-214AA_824521102
*******
.subckt DO-214AA_824521111 1 2
D1 1 3 DTVS
D2 2 3 DTVS
Rleak 1 2 11Meg
.MODEL DTVS D (IS=0.00001 N=1.5 RS=0.162121212121212 IBV=1m BV=12.85 CJO=951.97p)
.ends DO-214AA_824521111
*******
.subckt DO-214AA_824521121 1 2
D1 1 3 DTVS
D2 2 3 DTVS
Rleak 1 2 12Meg
.MODEL DTVS D (IS=0.00001 N=1.5 RS=0.195364238410596 IBV=1m BV=14 CJO=813.69p)
.ends DO-214AA_824521121
*******
.subckt DO-214AA_824521131 1 2
D1 1 3 DTVS
D2 2 3 DTVS
Rleak 1 2 13Meg
.MODEL DTVS D (IS=0.00001 N=1.5 RS=0.226785714285714 IBV=1m BV=15.15 CJO=806.92p)
.ends DO-214AA_824521131
*******
.subckt DO-214AA_824521141 1 2
D1 1 3 DTVS
D2 2 3 DTVS
Rleak 1 2 14Meg
.MODEL DTVS D (IS=0.00001 N=1.5 RS=0.262548262548263 IBV=1m BV=16.4 CJO=747.79p)
.ends DO-214AA_824521141
*******
.subckt DO-214AA_824521151 1 2
D1 1 3 DTVS
D2 2 3 DTVS
Rleak 1 2 15Meg
.MODEL DTVS D (IS=0.00001 N=1.5 RS=0.276422764227642 IBV=1m BV=17.6 CJO=737.49p)
.ends DO-214AA_824521151
*******
.subckt DO-214AA_824521161 1 2
D1 1 3 DTVS
D2 2 3 DTVS
Rleak 1 2 16Meg
.MODEL DTVS D (IS=0.00001 N=1.5 RS=0.313852813852814 IBV=1m BV=18.75 CJO=706.36p)
.ends DO-214AA_824521161
*******
.subckt DO-214AA_824521162 1 2
D1 1 3 DTVS
D2 2 3 DTVS
Rleak 1 2 160Meg
.MODEL DTVS D (IS=0.00001 N=1.5 RS=31.0869565217391 IBV=1m BV=187.5 CJO=113.51p)
.ends DO-214AA_824521162
*******
.subckt DO-214AA_824521171 1 2
D1 1 3 DTVS
D2 2 3 DTVS
Rleak 1 2 17Meg
.MODEL DTVS D (IS=0.00001 N=1.5 RS=0.353211009174312 IBV=1m BV=19.9 CJO=639.13p)
.ends DO-214AA_824521171
*******
.subckt DO-214AA_824521181 1 2
D1 1 3 DTVS
D2 2 3 DTVS
Rleak 1 2 18Meg
.MODEL DTVS D (IS=0.00001 N=1.5 RS=0.395631067961165 IBV=1m BV=21.05 CJO=585.53p)
.ends DO-214AA_824521181
*******
.subckt DO-214AA_824521201 1 2
D1 1 3 DTVS
D2 2 3 DTVS
Rleak 1 2 20Meg
.MODEL DTVS D (IS=0.00001 N=1.5 RS=0.486559139784946 IBV=1m BV=23.35 CJO=481.68p)
.ends DO-214AA_824521201
*******
.subckt DO-214AA_824521202 1 2
D1 1 3 DTVS
D2 2 3 DTVS
Rleak 1 2 200Meg
.MODEL DTVS D (IS=0.00001 N=1.5 RS=46.5789473684211 IBV=1m BV=235.5 CJO=104.02p)
.ends DO-214AA_824521202
*******
.subckt DO-214AA_824521221 1 2
D1 1 3 DTVS
D2 2 3 DTVS
Rleak 1 2 22Meg
.MODEL DTVS D (IS=0.00001 N=1.5 RS=0.582840236686391 IBV=1m BV=25.65 CJO=484.82p)
.ends DO-214AA_824521221
*******
.subckt DO-214AA_824521222 1 2
D1 1 3 DTVS
D2 2 3 DTVS
Rleak 1 2 200Meg
.MODEL DTVS D (IS=0.00001 N=1.5 RS=57.0588235294118 IBV=1m BV=259 CJO=91.36p)
.ends DO-214AA_824521222
*******
.subckt DO-214AA_824521241 1 2
D1 1 3 DTVS
D2 2 3 DTVS
Rleak 1 2 24Meg
.MODEL DTVS D (IS=0.00001 N=1.5 RS=0.696774193548387 IBV=1m BV=28.1 CJO=469.44p)
.ends DO-214AA_824521241
*******
.subckt DO-214AA_824521252 1 2
D1 1 3 DTVS
D2 2 3 DTVS
Rleak 1 2 200Meg
.MODEL DTVS D (IS=0.00001 N=1.5 RS=74 IBV=1m BV=294 CJO=85p)
.ends DO-214AA_824521252
*******
.subckt DO-214AA_824521261 1 2
D1 1 3 DTVS
D2 2 3 DTVS
Rleak 1 2 26Meg
.MODEL DTVS D (IS=0.00001 N=1.5 RS=0.818181818181818 IBV=1m BV=30.4 CJO=382.42p)
.ends DO-214AA_824521261
*******
.subckt DO-214AA_824521281 1 2
D1 1 3 DTVS
D2 2 3 DTVS
Rleak 1 2 28Meg
.MODEL DTVS D (IS=0.00001 N=1.5 RS=0.951127819548872 IBV=1m BV=32.75 CJO=380.85p)
.ends DO-214AA_824521281
*******
.subckt DO-214AA_824521301 1 2
D1 1 3 DTVS
D2 2 3 DTVS
Rleak 1 2 30Meg
.MODEL DTVS D (IS=0.00001 N=1.5 RS=1.07661290322581 IBV=1m BV=35.05 CJO=362.18p)
.ends DO-214AA_824521301
*******
.subckt DO-214AA_824521302 1 2
D1 1 3 DTVS
D2 2 3 DTVS
Rleak 1 2 200Meg
.MODEL DTVS D (IS=0.00001 N=1.5 RS=102.307692307692 IBV=1m BV=353 CJO=44.69p)
.ends DO-214AA_824521302
*******
.subckt DO-214AA_824521331 1 2
D1 1 3 DTVS
D2 2 3 DTVS
Rleak 1 2 33Meg
.MODEL DTVS D (IS=0.00001 N=1.5 RS=1.29646017699115 IBV=1m BV=38.65 CJO=334.83p)
.ends DO-214AA_824521331
*******
.subckt DO-214AA_824521352 1 2
D1 1 3 DTVS
D2 2 3 DTVS
Rleak 1 2 200Meg
.MODEL DTVS D (IS=0.00001 N=1.5 RS=141.363636363636 IBV=1m BV=411.5 CJO=38.67p)
.ends DO-214AA_824521352
*******
.subckt DO-214AA_824521361 1 2
D1 1 3 DTVS
D2 2 3 DTVS
Rleak 1 2 36Meg
.MODEL DTVS D (IS=0.00001 N=1.5 RS=1.53846153846154 IBV=1m BV=42.1 CJO=307.02p)
.ends DO-214AA_824521361
*******
.subckt DO-214AA_824521401 1 2
D1 1 3 DTVS
D2 2 3 DTVS
Rleak 1 2 40Meg
.MODEL DTVS D (IS=0.00001 N=1.5 RS=1.90860215053763 IBV=1m BV=46.75 CJO=296.09p)
.ends DO-214AA_824521401
*******
.subckt DO-214AA_824521402 1 2
D1 1 3 DTVS
D2 2 3 DTVS
Rleak 1 2 200Meg
.MODEL DTVS D (IS=0.00001 N=1.5 RS=197.222222222222 IBV=1m BV=470.5 CJO=35.3p)
.ends DO-214AA_824521402
*******
.subckt DO-214AA_824521431 1 2
D1 1 3 DTVS
D2 2 3 DTVS
Rleak 1 2 43Meg
.MODEL DTVS D (IS=0.00001 N=1.5 RS=2.19540229885058 IBV=1m BV=50.3 CJO=246.26p)
.ends DO-214AA_824521431
*******
.subckt DO-214AA_824521442 1 2
D1 1 3 DTVS
D2 2 3 DTVS
Rleak 1 2 200Meg
.MODEL DTVS D (IS=0.00001 N=1.5 RS=217.222222222222 IBV=1m BV=517.5 CJO=34.5p)
.ends DO-214AA_824521442
*******
.subckt DO-214AA_824521451 1 2
D1 1 3 DTVS
D2 2 3 DTVS
Rleak 1 2 45Meg
.MODEL DTVS D (IS=0.00001 N=1.5 RS=2.41566265060241 IBV=1m BV=52.65 CJO=222.93p)
.ends DO-214AA_824521451
*******
.subckt DO-214AA_824521481 1 2
D1 1 3 DTVS
D2 2 3 DTVS
Rleak 1 2 48Meg
.MODEL DTVS D (IS=0.00001 N=1.5 RS=2.73076923076923 IBV=1m BV=56.1 CJO=236.09p)
.ends DO-214AA_824521481
*******
.subckt DO-214AA_824521500 1 2
D1 1 3 DTVS
D2 2 3 DTVS
Rleak 1 2 0.003125Meg
.MODEL DTVS D (IS=0.00001 N=1.5 RS=3.82848392036753E-02 IBV=10m BV=6.7 CJO=2613.81p)
.ends DO-214AA_824521500
*******
.subckt DO-214AA_824521511 1 2
D1 1 3 DTVS
D2 2 3 DTVS
Rleak 1 2 51Meg
.MODEL DTVS D (IS=0.00001 N=1.5 RS=3.10958904109589 IBV=1m BV=59.7 CJO=211.32p)
.ends DO-214AA_824521511
*******
.subckt DO-214AA_824521541 1 2
D1 1 3 DTVS
D2 2 3 DTVS
Rleak 1 2 54Meg
.MODEL DTVS D (IS=0.00001 N=1.5 RS=3.47101449275362 IBV=1m BV=63.15 CJO=190.26p)
.ends DO-214AA_824521541
*******
.subckt DO-214AA_824521581 1 2
D1 1 3 DTVS
D2 2 3 DTVS
Rleak 1 2 58Meg
.MODEL DTVS D (IS=0.00001 N=1.5 RS=3.96923076923077 IBV=1m BV=67.8 CJO=181.3p)
.ends DO-214AA_824521581
*******
.subckt DO-214AA_824521600 1 2
D1 1 3 DTVS
D2 2 3 DTVS
Rleak 1 2 0.00375Meg
.MODEL DTVS D (IS=0.00001 N=1.5 RS=5.62607204116638E-02 IBV=10m BV=7.02 CJO=2134.64p)
.ends DO-214AA_824521600
*******
.subckt DO-214AA_824521601 1 2
D1 1 3 DTVS
D2 2 3 DTVS
Rleak 1 2 60Meg
.MODEL DTVS D (IS=0.00001 N=1.5 RS=4.29032258064516 IBV=1m BV=70.2 CJO=181.56p)
.ends DO-214AA_824521601
*******
.subckt DO-214AA_824521641 1 2
D1 1 3 DTVS
D2 2 3 DTVS
Rleak 1 2 64Meg
.MODEL DTVS D (IS=0.00001 N=1.5 RS=4.77118644067797 IBV=1m BV=74.85 CJO=172.09p)
.ends DO-214AA_824521641
*******
.subckt DO-214AA_824521650 1 2
D1 1 3 DTVS
D2 2 3 DTVS
Rleak 1 2 0.0065Meg
.MODEL DTVS D (IS=0.00001 N=1.5 RS=6.71641791044776E-02 IBV=10m BV=7.6 CJO=1993.04p)
.ends DO-214AA_824521650
*******
.subckt DO-214AA_824521700 1 2
D1 1 3 DTVS
D2 2 3 DTVS
Rleak 1 2 0.0175Meg
.MODEL DTVS D (IS=0.00001 N=1.5 RS=0.0762 IBV=10m BV=8.19 CJO=1828.75p)
.ends DO-214AA_824521700
*******
.subckt DO-214AA_824521701 1 2
D1 1 3 DTVS
D2 2 3 DTVS
Rleak 1 2 70Meg
.MODEL DTVS D (IS=0.00001 N=1.5 RS=5.86792452830189 IBV=1m BV=81.9 CJO=160.47p)
.ends DO-214AA_824521701
*******
.subckt DO-214AA_824521750 1 2
D1 1 3 DTVS
D2 2 3 DTVS
Rleak 1 2 0.0375Meg
.MODEL DTVS D (IS=0.00001 N=1.5 RS=8.86266094420601E-02 IBV=1m BV=8.77 CJO=1802.48p)
.ends DO-214AA_824521750
*******
.subckt DO-214AA_824521751 1 2
D1 1 3 DTVS
D2 2 3 DTVS
Rleak 1 2 75Meg
.MODEL DTVS D (IS=0.00001 N=1.5 RS=6.66 IBV=1m BV=87.7 CJO=164.75p)
.ends DO-214AA_824521751
*******
.subckt DO-214AA_824521781 1 2
D1 1 3 DTVS
D2 2 3 DTVS
Rleak 1 2 78Meg
.MODEL DTVS D (IS=0.00001 N=1.5 RS=7.23958333333333 IBV=1m BV=91.25 CJO=160.33p)
.ends DO-214AA_824521781
*******
.subckt DO-214AA_824521800 1 2
D1 1 3 DTVS
D2 2 3 DTVS
Rleak 1 2 0.08Meg
.MODEL DTVS D (IS=0.00001 N=1.5 RS=9.59276018099547E-02 IBV=1m BV=9.36 CJO=1685.74p)
.ends DO-214AA_824521800
*******
.subckt DO-214AA_824521850 1 2
D1 1 3 DTVS
D2 2 3 DTVS
Rleak 1 2 0.2125Meg
.MODEL DTVS D (IS=0.00001 N=1.5 RS=0.107434052757794 IBV=1m BV=9.92 CJO=1844.16p)
.ends DO-214AA_824521850
*******
.subckt DO-214AA_824521851 1 2
D1 1 3 DTVS
D2 2 3 DTVS
Rleak 1 2 85Meg
.MODEL DTVS D (IS=0.00001 N=1.5 RS=8.59090909090909 IBV=1m BV=99.2 CJO=134.45p)
.ends DO-214AA_824521851
*******
.subckt DO-214AA_824521900 1 2
D1 1 3 DTVS
D2 2 3 DTVS
Rleak 1 2 0.45Meg
.MODEL DTVS D (IS=0.00001 N=1.5 RS=0.124358974358974 IBV=1m BV=10.55 CJO=1638.74p)
.ends DO-214AA_824521900
*******
.subckt DO-214AA_824521901 1 2
D1 1 3 DTVS
D2 2 3 DTVS
Rleak 1 2 90Meg
.MODEL DTVS D (IS=0.00001 N=1.5 RS=9.87804878048781 IBV=1m BV=105.5 CJO=126.33p)
.ends DO-214AA_824521901
*******
.subckt DO-214AB_824541101 1 2
D1 1 3 DTVS
D2 2 3 DTVS
Rleak 1 2 1Meg
.MODEL DTVS D (IS=0.00001 N=1.5 RS=6.00226500566252E-02 IBV=1m BV=11.7 CJO=3505.68p)
.ends DO-214AB_824541101
*******
.subckt DO-214AB_824541102 1 2
D1 1 3 DTVS
D2 2 3 DTVS
Rleak 1 2 100Meg
.MODEL DTVS D (IS=0.00001 N=1.5 RS=4.83870967741935 IBV=1m BV=117 CJO=388.9p)
.ends DO-214AB_824541102
*******
.subckt DO-214AB_824541111 1 2
D1 1 3 DTVS
D2 2 3 DTVS
Rleak 1 2 11Meg
.MODEL DTVS D (IS=0.00001 N=1.5 RS=6.48484848484848E-02 IBV=1m BV=12.85 CJO=2851.34p)
.ends DO-214AB_824541111
*******
.subckt DO-214AB_824541121 1 2
D1 1 3 DTVS
D2 2 3 DTVS
Rleak 1 2 12Meg
.MODEL DTVS D (IS=0.00001 N=1.5 RS=7.82493368700265E-02 IBV=1m BV=14 CJO=2524.13p)
.ends DO-214AB_824541121
*******
.subckt DO-214AB_824541131 1 2
D1 1 3 DTVS
D2 2 3 DTVS
Rleak 1 2 13Meg
.MODEL DTVS D (IS=0.00001 N=1.5 RS=0.090974212034384 IBV=1m BV=15.15 CJO=2572.36p)
.ends DO-214AB_824541131
*******
.subckt DO-214AB_824541141 1 2
D1 1 3 DTVS
D2 2 3 DTVS
Rleak 1 2 14Meg
.MODEL DTVS D (IS=0.00001 N=1.5 RS=0.105100463678516 IBV=1m BV=16.4 CJO=2452.5p)
.ends DO-214AB_824541141
*******
.subckt DO-214AB_824541151 1 2
D1 1 3 DTVS
D2 2 3 DTVS
Rleak 1 2 15Meg
.MODEL DTVS D (IS=0.00001 N=1.5 RS=0.110569105691057 IBV=1m BV=17.6 CJO=2147.55p)
.ends DO-214AB_824541151
*******
.subckt DO-214AB_824541161 1 2
D1 1 3 DTVS
D2 2 3 DTVS
Rleak 1 2 16Meg
.MODEL DTVS D (IS=0.00001 N=1.5 RS=0.125649913344887 IBV=1m BV=18.75 CJO=2125.67p)
.ends DO-214AB_824541161
*******
.subckt DO-214AB_824541162 1 2
D1 1 3 DTVS
D2 2 3 DTVS
Rleak 1 2 160Meg
.MODEL DTVS D (IS=0.00001 N=1.5 RS=12.3275862068966 IBV=1m BV=187.5 CJO=292.7p)
.ends DO-214AB_824541162
*******
.subckt DO-214AB_824541171 1 2
D1 1 3 DTVS
D2 2 3 DTVS
Rleak 1 2 17Meg
.MODEL DTVS D (IS=0.00001 N=1.5 RS=0.141544117647059 IBV=1m BV=19.9 CJO=1994.41p)
.ends DO-214AB_824541171
*******
.subckt DO-214AB_824541181 1 2
D1 1 3 DTVS
D2 2 3 DTVS
Rleak 1 2 18Meg
.MODEL DTVS D (IS=0.00001 N=1.5 RS=0.158560311284047 IBV=1m BV=21.05 CJO=1850.21p)
.ends DO-214AB_824541181
*******
.subckt DO-214AB_824541201 1 2
D1 1 3 DTVS
D2 2 3 DTVS
Rleak 1 2 20Meg
.MODEL DTVS D (IS=0.00001 N=1.5 RS=0.195464362850972 IBV=1m BV=23.35 CJO=1470.92p)
.ends DO-214AB_824541201
*******
.subckt DO-214AB_824541202 1 2
D1 1 3 DTVS
D2 2 3 DTVS
Rleak 1 2 200Meg
.MODEL DTVS D (IS=0.00001 N=1.5 RS=19.2391304347826 IBV=1m BV=235.5 CJO=252.09p)
.ends DO-214AB_824541202
*******
.subckt DO-214AB_824541221 1 2
D1 1 3 DTVS
D2 2 3 DTVS
Rleak 1 2 22Meg
.MODEL DTVS D (IS=0.00001 N=1.5 RS=0.232860520094563 IBV=1m BV=25.65 CJO=1334.94p)
.ends DO-214AB_824541221
*******
.subckt DO-214AB_824541222 1 2
D1 1 3 DTVS
D2 2 3 DTVS
Rleak 1 2 200Meg
.MODEL DTVS D (IS=0.00001 N=1.5 RS=23.0952380952381 IBV=1m BV=259 CJO=233.82p)
.ends DO-214AB_824541222
*******
.subckt DO-214AB_824541241 1 2
D1 1 3 DTVS
D2 2 3 DTVS
Rleak 1 2 24Meg
.MODEL DTVS D (IS=0.00001 N=1.5 RS=0.27979274611399 IBV=1m BV=28.1 CJO=1398.34p)
.ends DO-214AB_824541241
*******
.subckt DO-214AB_824541252 1 2
D1 1 3 DTVS
D2 2 3 DTVS
Rleak 1 2 200Meg
.MODEL DTVS D (IS=0.00001 N=1.5 RS=30 IBV=1m BV=294 CJO=214.75p)
.ends DO-214AB_824541252
*******
.subckt DO-214AB_824541261 1 2
D1 1 3 DTVS
D2 2 3 DTVS
Rleak 1 2 26Meg
.MODEL DTVS D (IS=0.00001 N=1.5 RS=0.327731092436975 IBV=1m BV=30.4 CJO=1282.09p)
.ends DO-214AB_824541261
*******
.subckt DO-214AB_824541281 1 2
D1 1 3 DTVS
D2 2 3 DTVS
Rleak 1 2 28Meg
.MODEL DTVS D (IS=0.00001 N=1.5 RS=0.382175226586103 IBV=1m BV=32.75 CJO=1120.2p)
.ends DO-214AB_824541281
*******
.subckt DO-214AB_824541301 1 2
D1 1 3 DTVS
D2 2 3 DTVS
Rleak 1 2 30Meg
.MODEL DTVS D (IS=0.00001 N=1.5 RS=0.430645161290323 IBV=1m BV=35.05 CJO=1149.05p)
.ends DO-214AB_824541301
*******
.subckt DO-214AB_824541302 1 2
D1 1 3 DTVS
D2 2 3 DTVS
Rleak 1 2 200Meg
.MODEL DTVS D (IS=0.00001 N=1.5 RS=42.9032258064516 IBV=1m BV=353 CJO=101.14p)
.ends DO-214AB_824541302
*******
.subckt DO-214AB_824541331 1 2
D1 1 3 DTVS
D2 2 3 DTVS
Rleak 1 2 33Meg
.MODEL DTVS D (IS=0.00001 N=1.5 RS=0.519503546099291 IBV=1m BV=38.65 CJO=1014.79p)
.ends DO-214AB_824541331
*******
.subckt DO-214AB_824541352 1 2
D1 1 3 DTVS
D2 2 3 DTVS
Rleak 1 2 200Meg
.MODEL DTVS D (IS=0.00001 N=1.5 RS=59.8076923076923 IBV=1m BV=411.5 CJO=95.08p)
.ends DO-214AB_824541352
*******
.subckt DO-214AB_824541361 1 2
D1 1 3 DTVS
D2 2 3 DTVS
Rleak 1 2 36Meg
.MODEL DTVS D (IS=0.00001 N=1.5 RS=0.617760617760618 IBV=1m BV=42.1 CJO=860.26p)
.ends DO-214AB_824541361
*******
.subckt DO-214AB_824541401 1 2
D1 1 3 DTVS
D2 2 3 DTVS
Rleak 1 2 40Meg
.MODEL DTVS D (IS=0.00001 N=1.5 RS=0.761802575107296 IBV=1m BV=46.75 CJO=797.92p)
.ends DO-214AB_824541401
*******
.subckt DO-214AB_824541402 1 2
D1 1 3 DTVS
D2 2 3 DTVS
Rleak 1 2 200Meg
.MODEL DTVS D (IS=0.00001 N=1.5 RS=77.1739130434783 IBV=1m BV=470.5 CJO=83.97p)
.ends DO-214AB_824541402
*******
.subckt DO-214AB_824541431 1 2
D1 1 3 DTVS
D2 2 3 DTVS
Rleak 1 2 43Meg
.MODEL DTVS D (IS=0.00001 N=1.5 RS=0.880184331797235 IBV=1m BV=50.3 CJO=744.57p)
.ends DO-214AB_824541431
*******
.subckt DO-214AB_824541442 1 2
D1 1 3 DTVS
D2 2 3 DTVS
Rleak 1 2 200Meg
.MODEL DTVS D (IS=0.00001 N=1.5 RS=93.0952380952381 IBV=1m BV=517.5 CJO=75.02p)
.ends DO-214AB_824541442
*******
.subckt DO-214AB_824541451 1 2
D1 1 3 DTVS
D2 2 3 DTVS
Rleak 1 2 45Meg
.MODEL DTVS D (IS=0.00001 N=1.5 RS=0.973300970873787 IBV=1m BV=52.65 CJO=735.04p)
.ends DO-214AB_824541451
*******
.subckt DO-214AB_824541481 1 2
D1 1 3 DTVS
D2 2 3 DTVS
Rleak 1 2 48Meg
.MODEL DTVS D (IS=0.00001 N=1.5 RS=1.0979381443299 IBV=1m BV=56.1 CJO=682.54p)
.ends DO-214AB_824541481
*******
.subckt DO-214AB_824541500 1 2
D1 1 3 DTVS
D2 2 3 DTVS
Rleak 1 2 0.003125Meg
.MODEL DTVS D (IS=0.00001 N=1.5 RS=1.53374233128834E-02 IBV=10m BV=6.7 CJO=5988.74p)
.ends DO-214AB_824541500
*******
.subckt DO-214AB_824541511 1 2
D1 1 3 DTVS
D2 2 3 DTVS
Rleak 1 2 51Meg
.MODEL DTVS D (IS=0.00001 N=1.5 RS=1.24725274725275 IBV=1m BV=59.7 CJO=675.78p)
.ends DO-214AB_824541511
*******
.subckt DO-214AB_824541541 1 2
D1 1 3 DTVS
D2 2 3 DTVS
Rleak 1 2 54Meg
.MODEL DTVS D (IS=0.00001 N=1.5 RS=1.38439306358381 IBV=1m BV=63.15 CJO=626.3p)
.ends DO-214AB_824541541
*******
.subckt DO-214AB_824541581 1 2
D1 1 3 DTVS
D2 2 3 DTVS
Rleak 1 2 58Meg
.MODEL DTVS D (IS=0.00001 N=1.5 RS=1.60248447204969 IBV=1m BV=67.8 CJO=609.2p)
.ends DO-214AB_824541581
*******
.subckt DO-214AB_824541600 1 2
D1 1 3 DTVS
D2 2 3 DTVS
Rleak 1 2 0.00375Meg
.MODEL DTVS D (IS=0.00001 N=1.5 RS=2.25120109814688E-02 IBV=10m BV=7.02 CJO=5279.6p)
.ends DO-214AB_824541600
*******
.subckt DO-214AB_824541601 1 2
D1 1 3 DTVS
D2 2 3 DTVS
Rleak 1 2 60Meg
.MODEL DTVS D (IS=0.00001 N=1.5 RS=1.71612903225806 IBV=1m BV=70.2 CJO=571.58p)
.ends DO-214AB_824541601
*******
.subckt DO-214AB_824541641 1 2
D1 1 3 DTVS
D2 2 3 DTVS
Rleak 1 2 64Meg
.MODEL DTVS D (IS=0.00001 N=1.5 RS=1.92808219178082 IBV=1m BV=74.85 CJO=530.77p)
.ends DO-214AB_824541641
*******
.subckt DO-214AB_824541650 1 2
D1 1 3 DTVS
D2 2 3 DTVS
Rleak 1 2 0.0065Meg
.MODEL DTVS D (IS=0.00001 N=1.5 RS=0.026865671641791 IBV=10m BV=7.6 CJO=4421.81p)
.ends DO-214AB_824541650
*******
.subckt DO-214AB_824541700 1 2
D1 1 3 DTVS
D2 2 3 DTVS
Rleak 1 2 0.0175Meg
.MODEL DTVS D (IS=0.00001 N=1.5 RS=0.03048 IBV=10m BV=8.19 CJO=4343.11p)
.ends DO-214AB_824541700
*******
.subckt DO-214AB_824541701 1 2
D1 1 3 DTVS
D2 2 3 DTVS
Rleak 1 2 70Meg
.MODEL DTVS D (IS=0.00001 N=1.5 RS=2.33834586466165 IBV=1m BV=81.9 CJO=492.11p)
.ends DO-214AB_824541701
*******
.subckt DO-214AB_824541750 1 2
D1 1 3 DTVS
D2 2 3 DTVS
Rleak 1 2 0.0375Meg
.MODEL DTVS D (IS=0.00001 N=1.5 RS=3.55116079105761E-02 IBV=1m BV=8.77 CJO=4326.69p)
.ends DO-214AB_824541750
*******
.subckt DO-214AB_824541751 1 2
D1 1 3 DTVS
D2 2 3 DTVS
Rleak 1 2 75Meg
.MODEL DTVS D (IS=0.00001 N=1.5 RS=2.68548387096774 IBV=1m BV=87.7 CJO=499.93p)
.ends DO-214AB_824541751
*******
.subckt DO-214AB_824541781 1 2
D1 1 3 DTVS
D2 2 3 DTVS
Rleak 1 2 78Meg
.MODEL DTVS D (IS=0.00001 N=1.5 RS=2.92016806722689 IBV=1m BV=91.25 CJO=487.59p)
.ends DO-214AB_824541781
*******
.subckt DO-214AB_824541800 1 2
D1 1 3 DTVS
D2 2 3 DTVS
Rleak 1 2 0.08Meg
.MODEL DTVS D (IS=0.00001 N=1.5 RS=3.84406165004533E-02 IBV=1m BV=9.36 CJO=3923.88p)
.ends DO-214AB_824541800
*******
.subckt DO-214AB_824541850 1 2
D1 1 3 DTVS
D2 2 3 DTVS
Rleak 1 2 0.2125Meg
.MODEL DTVS D (IS=0.00001 N=1.5 RS=4.29942418426104E-02 IBV=1m BV=9.92 CJO=3916.25p)
.ends DO-214AB_824541850
*******
.subckt DO-214AB_824541851 1 2
D1 1 3 DTVS
D2 2 3 DTVS
Rleak 1 2 85Meg
.MODEL DTVS D (IS=0.00001 N=1.5 RS=3.43636363636364 IBV=1m BV=99.2 CJO=432.22p)
.ends DO-214AB_824541851
*******
.subckt DO-214AB_824541900 1 2
D1 1 3 DTVS
D2 2 3 DTVS
Rleak 1 2 0.45Meg
.MODEL DTVS D (IS=0.00001 N=1.5 RS=4.97946611909651E-02 IBV=1m BV=10.55 CJO=3378.35p)
.ends DO-214AB_824541900
*******
.subckt DO-214AB_824541901 1 2
D1 1 3 DTVS
D2 2 3 DTVS
Rleak 1 2 90Meg
.MODEL DTVS D (IS=0.00001 N=1.5 RS=3.93203883495146 IBV=1m BV=105.5 CJO=403.07p)
.ends DO-214AB_824541901
*******
.subckt DO-214AB_824551101 1 2
D1 1 3 DTVS
D2 2 3 DTVS
Rleak 1 2 1Meg
.MODEL DTVS D (IS=0.00001 N=1.5 RS=0.030028328611898 IBV=1m BV=11.7 CJO=6432.68p)
.ends DO-214AB_824551101
*******
.subckt DO-214AB_824551102 1 2
D1 1 3 DTVS
D2 2 3 DTVS
Rleak 1 2 50Meg
.MODEL DTVS D (IS=0.00001 N=1.5 RS=2.43243243243243 IBV=1m BV=117 CJO=750.19p)
.ends DO-214AB_824551102
*******
.subckt DO-214AB_824551111 1 2
D1 1 3 DTVS
D2 2 3 DTVS
Rleak 1 2 5.5Meg
.MODEL DTVS D (IS=0.00001 N=1.5 RS=3.24635922330097E-02 IBV=1m BV=12.85 CJO=6063.41p)
.ends DO-214AB_824551111
*******
.subckt DO-214AB_824551121 1 2
D1 1 3 DTVS
D2 2 3 DTVS
Rleak 1 2 6Meg
.MODEL DTVS D (IS=0.00001 N=1.5 RS=3.91246684350132E-02 IBV=1m BV=14 CJO=5426.73p)
.ends DO-214AB_824551121
*******
.subckt DO-214AB_824551131 1 2
D1 1 3 DTVS
D2 2 3 DTVS
Rleak 1 2 6.5Meg
.MODEL DTVS D (IS=0.00001 N=1.5 RS=4.55197132616487E-02 IBV=1m BV=15.15 CJO=5684.8p)
.ends DO-214AB_824551131
*******
.subckt DO-214AB_824551141 1 2
D1 1 3 DTVS
D2 2 3 DTVS
Rleak 1 2 7Meg
.MODEL DTVS D (IS=0.00001 N=1.5 RS=5.25908739365816E-02 IBV=1m BV=16.4 CJO=5030.17p)
.ends DO-214AB_824551141
*******
.subckt DO-214AB_824551151 1 2
D1 1 3 DTVS
D2 2 3 DTVS
Rleak 1 2 7.5Meg
.MODEL DTVS D (IS=0.00001 N=1.5 RS=5.52845528455284E-02 IBV=1m BV=17.6 CJO=4633.12p)
.ends DO-214AB_824551151
*******
.subckt DO-214AB_824551161 1 2
D1 1 3 DTVS
D2 2 3 DTVS
Rleak 1 2 8Meg
.MODEL DTVS D (IS=0.00001 N=1.5 RS=6.28249566724437E-02 IBV=1m BV=18.75 CJO=4314.09p)
.ends DO-214AB_824551161
*******
.subckt DO-214AB_824551162 1 2
D1 1 3 DTVS
D2 2 3 DTVS
Rleak 1 2 80Meg
.MODEL DTVS D (IS=0.00001 N=1.5 RS=6.16379310344828 IBV=1m BV=187.5 CJO=672.13p)
.ends DO-214AB_824551162
*******
.subckt DO-214AB_824551171 1 2
D1 1 3 DTVS
D2 2 3 DTVS
Rleak 1 2 8.5Meg
.MODEL DTVS D (IS=0.00001 N=1.5 RS=7.08371665133395E-02 IBV=1m BV=19.9 CJO=3985.01p)
.ends DO-214AB_824551171
*******
.subckt DO-214AB_824551181 1 2
D1 1 3 DTVS
D2 2 3 DTVS
Rleak 1 2 9Meg
.MODEL DTVS D (IS=0.00001 N=1.5 RS=7.93573515092502E-02 IBV=1m BV=21.05 CJO=4001.3p)
.ends DO-214AB_824551181
*******
.subckt DO-214AB_824551201 1 2
D1 1 3 DTVS
D2 2 3 DTVS
Rleak 1 2 10Meg
.MODEL DTVS D (IS=0.00001 N=1.5 RS=9.77321814254859E-02 IBV=1m BV=23.35 CJO=3117.18p)
.ends DO-214AB_824551201
*******
.subckt DO-214AB_824551202 1 2
D1 1 3 DTVS
D2 2 3 DTVS
Rleak 1 2 100Meg
.MODEL DTVS D (IS=0.00001 N=1.5 RS=9.51612903225806 IBV=1m BV=235.5 CJO=479.44p)
.ends DO-214AB_824551202
*******
.subckt DO-214AB_824551221 1 2
D1 1 3 DTVS
D2 2 3 DTVS
Rleak 1 2 11Meg
.MODEL DTVS D (IS=0.00001 N=1.5 RS=0.116568047337278 IBV=1m BV=25.65 CJO=3183.8p)
.ends DO-214AB_824551221
*******
.subckt DO-214AB_824551222 1 2
D1 1 3 DTVS
D2 2 3 DTVS
Rleak 1 2 100Meg
.MODEL DTVS D (IS=0.00001 N=1.5 RS=11.547619047619 IBV=1m BV=259 CJO=554.08p)
.ends DO-214AB_824551222
*******
.subckt DO-214AB_824551241 1 2
D1 1 3 DTVS
D2 2 3 DTVS
Rleak 1 2 12Meg
.MODEL DTVS D (IS=0.00001 N=1.5 RS=0.140077821011673 IBV=1m BV=28.1 CJO=3121.22p)
.ends DO-214AB_824551241
*******
.subckt DO-214AB_824551261 1 2
D1 1 3 DTVS
D2 2 3 DTVS
Rleak 1 2 13Meg
.MODEL DTVS D (IS=0.00001 N=1.5 RS=0.164095371669004 IBV=1m BV=30.4 CJO=2443.32p)
.ends DO-214AB_824551261
*******
.subckt DO-214AB_824551281 1 2
D1 1 3 DTVS
D2 2 3 DTVS
Rleak 1 2 14Meg
.MODEL DTVS D (IS=0.00001 N=1.5 RS=0.191376701966717 IBV=1m BV=32.75 CJO=2466.39p)
.ends DO-214AB_824551281
*******
.subckt DO-214AB_824551301 1 2
D1 1 3 DTVS
D2 2 3 DTVS
Rleak 1 2 15Meg
.MODEL DTVS D (IS=0.00001 N=1.5 RS=0.215322580645161 IBV=1m BV=35.05 CJO=2219.37p)
.ends DO-214AB_824551301
*******
.subckt DO-214AB_824551331 1 2
D1 1 3 DTVS
D2 2 3 DTVS
Rleak 1 2 16.5Meg
.MODEL DTVS D (IS=0.00001 N=1.5 RS=0.260213143872114 IBV=1m BV=38.65 CJO=2095.32p)
.ends DO-214AB_824551331
*******
.subckt DO-214AB_824551361 1 2
D1 1 3 DTVS
D2 2 3 DTVS
Rleak 1 2 18Meg
.MODEL DTVS D (IS=0.00001 N=1.5 RS=0.310077519379845 IBV=1m BV=42.1 CJO=1871.64p)
.ends DO-214AB_824551361
*******
.subckt DO-214AB_824551401 1 2
D1 1 3 DTVS
D2 2 3 DTVS
Rleak 1 2 20Meg
.MODEL DTVS D (IS=0.00001 N=1.5 RS=0.381720430107527 IBV=1m BV=46.75 CJO=1701.47p)
.ends DO-214AB_824551401
*******
.subckt DO-214AB_824551431 1 2
D1 1 3 DTVS
D2 2 3 DTVS
Rleak 1 2 21.5Meg
.MODEL DTVS D (IS=0.00001 N=1.5 RS=0.44212962962963 IBV=1m BV=50.3 CJO=1530.2p)
.ends DO-214AB_824551431
*******
.subckt DO-214AB_824551451 1 2
D1 1 3 DTVS
D2 2 3 DTVS
Rleak 1 2 22.5Meg
.MODEL DTVS D (IS=0.00001 N=1.5 RS=0.485472154963681 IBV=1m BV=52.65 CJO=1566.55p)
.ends DO-214AB_824551451
*******
.subckt DO-214AB_824551481 1 2
D1 1 3 DTVS
D2 2 3 DTVS
Rleak 1 2 24Meg
.MODEL DTVS D (IS=0.00001 N=1.5 RS=0.548969072164949 IBV=1m BV=56.1 CJO=1511.86p)
.ends DO-214AB_824551481
*******
.subckt DO-214AB_824551500 1 2
D1 1 3 DTVS
D2 2 3 DTVS
Rleak 1 2 0.003125Meg
.MODEL DTVS D (IS=0.00001 N=1.5 RS=7.66636001226617E-03 IBV=10m BV=6.7 CJO=12559.33p)
.ends DO-214AB_824551500
*******
.subckt DO-214AB_824551511 1 2
D1 1 3 DTVS
D2 2 3 DTVS
Rleak 1 2 25.5Meg
.MODEL DTVS D (IS=0.00001 N=1.5 RS=0.623626373626374 IBV=1m BV=59.7 CJO=1410.5p)
.ends DO-214AB_824551511
*******
.subckt DO-214AB_824551541 1 2
D1 1 3 DTVS
D2 2 3 DTVS
Rleak 1 2 27Meg
.MODEL DTVS D (IS=0.00001 N=1.5 RS=0.696220930232558 IBV=1m BV=63.15 CJO=1254.8p)
.ends DO-214AB_824551541
*******
.subckt DO-214AB_824551581 1 2
D1 1 3 DTVS
D2 2 3 DTVS
Rleak 1 2 29Meg
.MODEL DTVS D (IS=0.00001 N=1.5 RS=0.803738317757009 IBV=1m BV=67.8 CJO=1268.63p)
.ends DO-214AB_824551581
*******
.subckt DO-214AB_824551600 1 2
D1 1 3 DTVS
D2 2 3 DTVS
Rleak 1 2 0.00375Meg
.MODEL DTVS D (IS=0.00001 N=1.5 RS=1.12598695502918E-02 IBV=10m BV=7.02 CJO=10882p)
.ends DO-214AB_824551600
*******
.subckt DO-214AB_824551601 1 2
D1 1 3 DTVS
D2 2 3 DTVS
Rleak 1 2 30Meg
.MODEL DTVS D (IS=0.00001 N=1.5 RS=0.858064516129032 IBV=1m BV=70.2 CJO=1169p)
.ends DO-214AB_824551601
*******
.subckt DO-214AB_824551641 1 2
D1 1 3 DTVS
D2 2 3 DTVS
Rleak 1 2 32Meg
.MODEL DTVS D (IS=0.00001 N=1.5 RS=0.967353951890034 IBV=1m BV=74.85 CJO=1076.01p)
.ends DO-214AB_824551641
*******
.subckt DO-214AB_824551650 1 2
D1 1 3 DTVS
D2 2 3 DTVS
Rleak 1 2 0.0065Meg
.MODEL DTVS D (IS=0.00001 N=1.5 RS=0.013437849944009 IBV=10m BV=7.6 CJO=9505.94p)
.ends DO-214AB_824551650
*******
.subckt DO-214AB_824551700 1 2
D1 1 3 DTVS
D2 2 3 DTVS
Rleak 1 2 0.0175Meg
.MODEL DTVS D (IS=0.00001 N=1.5 RS=0.01524 IBV=10m BV=8.19 CJO=8967.24p)
.ends DO-214AB_824551700
*******
.subckt DO-214AB_824551701 1 2
D1 1 3 DTVS
D2 2 3 DTVS
Rleak 1 2 35Meg
.MODEL DTVS D (IS=0.00001 N=1.5 RS=1.17358490566038 IBV=1m BV=81.9 CJO=1046.73p)
.ends DO-214AB_824551701
*******
.subckt DO-214AB_824551750 1 2
D1 1 3 DTVS
D2 2 3 DTVS
Rleak 1 2 0.0375Meg
.MODEL DTVS D (IS=0.00001 N=1.5 RS=1.77558039552881E-02 IBV=1m BV=8.77 CJO=8912.23p)
.ends DO-214AB_824551750
*******
.subckt DO-214AB_824551751 1 2
D1 1 3 DTVS
D2 2 3 DTVS
Rleak 1 2 37.5Meg
.MODEL DTVS D (IS=0.00001 N=1.5 RS=1.34274193548387 IBV=1m BV=87.7 CJO=1053.54p)
.ends DO-214AB_824551751
*******
.subckt DO-214AB_824551781 1 2
D1 1 3 DTVS
D2 2 3 DTVS
Rleak 1 2 39Meg
.MODEL DTVS D (IS=0.00001 N=1.5 RS=1.46008403361345 IBV=1m BV=91.25 CJO=949.04p)
.ends DO-214AB_824551781
*******
.subckt DO-214AB_824551800 1 2
D1 1 3 DTVS
D2 2 3 DTVS
Rleak 1 2 0.08Meg
.MODEL DTVS D (IS=0.00001 N=1.5 RS=1.92203082502267E-02 IBV=1m BV=9.36 CJO=8489.62p)
.ends DO-214AB_824551800
*******
.subckt DO-214AB_824551850 1 2
D1 1 3 DTVS
D2 2 3 DTVS
Rleak 1 2 0.2125Meg
.MODEL DTVS D (IS=0.00001 N=1.5 RS=2.15074411905905E-02 IBV=1m BV=9.92 CJO=7433.54p)
.ends DO-214AB_824551850
*******
.subckt DO-214AB_824551851 1 2
D1 1 3 DTVS
D2 2 3 DTVS
Rleak 1 2 42.5Meg
.MODEL DTVS D (IS=0.00001 N=1.5 RS=1.72602739726027 IBV=1m BV=99.2 CJO=887.11p)
.ends DO-214AB_824551851
*******
.subckt DO-214AB_824551900 1 2
D1 1 3 DTVS
D2 2 3 DTVS
Rleak 1 2 0.45Meg
.MODEL DTVS D (IS=0.00001 N=1.5 RS=2.48973305954825E-02 IBV=1m BV=10.55 CJO=8328.31p)
.ends DO-214AB_824551900
*******
.subckt DO-214AB_824551901 1 2
D1 1 3 DTVS
D2 2 3 DTVS
Rleak 1 2 45Meg
.MODEL DTVS D (IS=0.00001 N=1.5 RS=1.97560975609756 IBV=1m BV=105.5 CJO=815.69p)
.ends DO-214AB_824551901
*******
.subckt DO-214AC_824501101 1 2
D1 1 3 DTVS
D2 2 3 DTVS
Rleak 1 2 1Meg
.MODEL DTVS D (IS=0.00001 N=1.5 RS=0.225531914893617 IBV=1m BV=11.7 CJO=733.21p)
.ends DO-214AC_824501101
*******
.subckt DO-214AC_824501102 1 2
D1 1 3 DTVS
D2 2 3 DTVS
Rleak 1 2 100Meg
.MODEL DTVS D (IS=0.00001 N=1.5 RS=18 IBV=1m BV=117 CJO=82.5p)
.ends DO-214AC_824501102
*******
.subckt DO-214AC_824501111 1 2
D1 1 3 DTVS
D2 2 3 DTVS
Rleak 1 2 11Meg
.MODEL DTVS D (IS=0.00001 N=1.5 RS=0.243181818181818 IBV=1m BV=12.85 CJO=571.64p)
.ends DO-214AC_824501111
*******
.subckt DO-214AC_824501121 1 2
D1 1 3 DTVS
D2 2 3 DTVS
Rleak 1 2 12Meg
.MODEL DTVS D (IS=0.00001 N=1.5 RS=0.293532338308458 IBV=1m BV=14 CJO=636.51p)
.ends DO-214AC_824501121
*******
.subckt DO-214AC_824501131 1 2
D1 1 3 DTVS
D2 2 3 DTVS
Rleak 1 2 13Meg
.MODEL DTVS D (IS=0.00001 N=1.5 RS=0.341397849462366 IBV=1m BV=15.15 CJO=482.93p)
.ends DO-214AC_824501131
*******
.subckt DO-214AC_824501141 1 2
D1 1 3 DTVS
D2 2 3 DTVS
Rleak 1 2 14Meg
.MODEL DTVS D (IS=0.00001 N=1.5 RS=0.395348837209302 IBV=1m BV=16.4 CJO=533.27p)
.ends DO-214AC_824501141
*******
.subckt DO-214AC_824501151 1 2
D1 1 3 DTVS
D2 2 3 DTVS
Rleak 1 2 15Meg
.MODEL DTVS D (IS=0.00001 N=1.5 RS=0.414634146341463 IBV=1m BV=17.6 CJO=503.54p)
.ends DO-214AC_824501151
*******
.subckt DO-214AC_824501161 1 2
D1 1 3 DTVS
D2 2 3 DTVS
Rleak 1 2 16Meg
.MODEL DTVS D (IS=0.00001 N=1.5 RS=0.470779220779221 IBV=1m BV=18.75 CJO=443.74p)
.ends DO-214AC_824501161
*******
.subckt DO-214AC_824501162 1 2
D1 1 3 DTVS
D2 2 3 DTVS
Rleak 1 2 160Meg
.MODEL DTVS D (IS=0.00001 N=1.5 RS=47.6666666666667 IBV=1m BV=187.5 CJO=62.83p)
.ends DO-214AC_824501162
*******
.subckt DO-214AC_824501171 1 2
D1 1 3 DTVS
D2 2 3 DTVS
Rleak 1 2 17Meg
.MODEL DTVS D (IS=0.00001 N=1.5 RS=0.531034482758621 IBV=1m BV=19.9 CJO=307.7p)
.ends DO-214AC_824501171
*******
.subckt DO-214AC_824501181 1 2
D1 1 3 DTVS
D2 2 3 DTVS
Rleak 1 2 18Meg
.MODEL DTVS D (IS=0.00001 N=1.5 RS=0.594890510948905 IBV=1m BV=21.05 CJO=460.05p)
.ends DO-214AC_824501181
*******
.subckt DO-214AC_824501201 1 2
D1 1 3 DTVS
D2 2 3 DTVS
Rleak 1 2 20Meg
.MODEL DTVS D (IS=0.00001 N=1.5 RS=0.735772357723577 IBV=1m BV=23.35 CJO=318.53p)
.ends DO-214AC_824501201
*******
.subckt DO-214AC_824501202 1 2
D1 1 3 DTVS
D2 2 3 DTVS
Rleak 1 2 200Meg
.MODEL DTVS D (IS=0.00001 N=1.5 RS=73.75 IBV=1m BV=235.5 CJO=54.48p)
.ends DO-214AC_824501202
*******
.subckt DO-214AC_824501221 1 2
D1 1 3 DTVS
D2 2 3 DTVS
Rleak 1 2 22Meg
.MODEL DTVS D (IS=0.00001 N=1.5 RS=0.871681415929204 IBV=1m BV=25.65 CJO=306.99p)
.ends DO-214AC_824501221
*******
.subckt DO-214AC_824501222 1 2
D1 1 3 DTVS
D2 2 3 DTVS
Rleak 1 2 200Meg
.MODEL DTVS D (IS=0.00001 N=1.5 RS=88.1818181818182 IBV=1m BV=259 CJO=50.97p)
.ends DO-214AC_824501222
*******
.subckt DO-214AC_824501241 1 2
D1 1 3 DTVS
D2 2 3 DTVS
Rleak 1 2 24Meg
.MODEL DTVS D (IS=0.00001 N=1.5 RS=1.04854368932039 IBV=1m BV=28.1 CJO=282.8p)
.ends DO-214AC_824501241
*******
.subckt DO-214AC_824501252 1 2
D1 1 3 DTVS