**************************************************
* Manufacturer:           Wurth Elektronik 
* Kinds:                  TVS Diode - Super Speed Series
* Matchcode:              WE-TVS
* Library Type:           LTspice
* Version:                rev25a
* Created/modified by:    Ella     
* Date and Time:          2025-02-26
* Team:                   eiSos EDA Service  
* Contact:                libraries@we-online.com
* The models were generated by Würth Elektronik in cooperation with Graz University of Technology - Institute of Electronics
**************************************************
* Copyright(C) 2025 Würth Elektronik eiSos GmbH & Co. KG
* All Rights Reserved.
**************************************************
* Disclaimer: While Würth Elektronik eiSos has made every reasonable effort to ensure the accuracy
* of the simulation models provided, Würth Elektronik eiSos does not guarantee the exemption of error on
* the simulation models, nor does Würth Elektronik eiSos guarantee that the simulation model is current.
* Würth Elektronik eiSos reserves the right to make any adjustments at any time without notice.
* Würth Elektronik eiSos expressly disclaims all implied warranties regarding this simulation model.
**************************************************
.subckt MSOP_82401444 IO1 IO2 IO3 IO4 VDD GND
XU1 IO1 GND 82401444_pin
XU2 IO2 GND 82401444_pin
XU3 IO3 GND 82401444_pin
XU4 IO4 GND 82401444_pin
XU5 VDD GND 82401444_vdd
C1 IO2 IO1 0.05p
C2 IO3 IO2 0.05p
C3 IO4 IO3 0.05p
C4 VDD IO4 0.05p
.ends MSOP_82401444
******
.subckt DFN1210_824012823 IO1 IO2 GND
XU1 IO1 GND 824012823_pin
XU2 IO2 GND 824012823_pin
C1 IO2 IO1 0.04p
.ends DFN1210_824012823
******
.subckt DFN3810_824014883 IO1 IO2 IO3 IO4 IO5 IO6 IO7 IO8 GND
C1 IO8 IO1 0.07p
C2 IO2 IO8 0.07p
C3 IO7 IO2 0.07p
C4 IO6 IO7 0.07p
C5 IO3 IO6 0.07p
C6 IO5 IO3 0.07p
C7 IO4 IO5 0.07p
XU1 IO1 GND 824014883_pin
XU2 IO8 GND 824014883_pin
XU3 IO2 GND 824014883_pin
XU4 IO7 GND 824014883_pin
XU5 IO6 GND 824014883_pin
XU6 IO3 GND 824014883_pin
XU7 IO5 GND 824014883_pin
XU8 IO4 GND 824014883_pin
.ends DFN3810_824014883
******
.subckt DFN3810_824014885 IO1 IO2 IO3 IO4 IO5 IO6 IO7 IO8 GND
XU1 IO1 GND 824014885_pin
XU2 IO8 GND 824014885_pin
XU3 IO2 GND 824014885_pin
XU4 IO7 GND 824014885_pin
XU5 IO6 GND 824014885_pin
XU6 IO3 GND 824014885_pin
XU7 IO5 GND 824014885_pin
XU8 IO4 GND 824014885_pin
C1 IO8 IO1 0.03p
C2 IO2 IO8 0.03p
C3 IO7 IO2 0.03p
C4 IO6 IO7 0.03p
C5 IO3 IO6 0.03p
C6 IO5 IO3 0.03p
C7 IO4 IO5 0.03p
.ends DFN3810_824014885
******
.subckt MSOP_82401646 IO1 IO2 IO3 IO4 IO5 IO6 VDD GND
XU1 IO1 GND 82401646_pin14
XU2 IO2 GND 82401646_pin14
XU3 IO3 GND 82401646_pin14
XU4 IO4 GND 82401646_pin14
XU5 IO5 GND 82401646_pin56
XU6 IO6 GND 82401646_pin56
XU7 VDD GND 82401646_vdd
C1 IO2 IO1 0.05p
C2 IO3 IO2 0.05p
C3 IO4 IO3 0.05p
C4 IO6 IO5 0.05p
.ends MSOP_82401646
******
.subckt SOT23_824014 IO1 IO2 IO3 IO4 VDD GND
XU1 IO1 GND 824014_pin
XU2 IO2 GND 824014_pin
XU3 IO3 GND 824014_pin
XU4 IO4 GND 824014_pin
XU5 VDD GND 824014_vdd
C1 IO2 IO1 0.08p
C2 IO3 IO2 0.08p
C3 IO4 IO3 0.08p
C4 IO3 IO1 0.08p
C5 IO4 IO1 0.08p
C6 IO4 IO2 0.08p
.ends SOT23_824014
**************************************************
.subckt 82401444_pin Anode Cathode
E1 N005 0 Positive Cathode 1
V1 Snap_A Snap_B 9.8
D1 0 Snap_B idealD
C1 snap_c 0 10p
R1 snap_c 0 1e6
D2 Test N006 idealD
V2 N006 N008 100
R2 N008 0 50
D3 N007 Test idealD
R3 N007 0 50
R4 Snap_C_LP snap_c 11
C2 Snap_C_LP 0 24p
S1 V3 Positive Snap_C_LP 0 snapback1SW
F1 0 Test V3 -1
R5 0 Test 1e100
R6 Cathode Positive 1e100
R7 Snap_A N005 1K
D4 N016 Cathode mainIV
R8 0 Snap_B 1e100
R9 0 snap_c 1e100
V3 B V3 0
R10 Test snap_c 1000
G1 0 snap_c 0 Snap_B -1
F2 0 N019 V4 +1
R11 N019 0 1e100
V4 B N013 0
S2 N014 N013 SBCM_C 0 sbcmSW
V5 SBCM_C N019 12.5
C3 N019 0 300p
D5 N019 N025 idealD
D6 N022 N019 idealD
R12 N029 0 50
R13 N022 0 50
F3 0 N020 V6 +1
R14 N020 0 1e100
V6 N014 N015 0
S3 N016 N015 CM_C 0 cmSW
V7 CM_C N020 1.75
C4 N020 0 50n
D7 N020 N026 idealD
D8 P001 N020 idealD
R15 N030 0 50
R16 P001 0 50
V8 N025 N029 100
V9 N026 N030 100
R17 N019 0 1e6
R18 N020 0 1e6
D12 Cathode N012 mainIVneg
F5 0 N017 V13 -1
R29 N017 0 1e100
V13 Negative N009 0
S5 N010 N009 SBCM_C_N 0 sbcmSWneg
V14 SBCM_C_N N017 7.14285714
C7 N017 0 150p
D13 N017 N023 idealD
D14 N021 N017 idealD
R30 N027 0 50
R31 N021 0 50
F6 0 N018 V15 -1
R32 N018 0 1e100
V15 N010 N011 0
S6 N012 N011 CM_C_N 0 cmSWneg
V16 CM_C_N N018 1.75
C8 N018 0 55n
D15 N018 N024 idealD
D16 P002 N018 idealD
R33 N028 0 50
R34 P002 0 50
V17 N023 N027 100
V18 N024 N028 100
R35 N017 0 1e6
R36 N018 0 1e6
L1 Anode N001 2.23n
C9 N001 N002 0.77p
R37 N002 Cathode 23.56
R38 N001 Cathode 1e7
D17 N001 Positive idealD
D18 Positive Cathode Before_snapback
D19 Negative N001 idealD
D20 Cathode Negative Before_snapback
.model D D
.model snapback1SW SW(Ron=0.01 Roff=1e6 Von=20 Voff=19.8)
.model mainIV D(Is=1e-16 N=7 Rs=0.24 )
.model sbcmSW SW(Ron=0.001 Roff=50 Von=50 Voff=0)
.model cmSW SW(Ron=0.001 Roff=16.6 Von=5 Voff=0)
* Positive
* Negative
.model idealD D(Is=1e-14 N=0.1 Rs=0.001 )
.model Before_snapback D(Is=1e-16 N=10 Rs=6)
.ic v(snap_c)=0
.ic v(snap_c_N)=0
.model mainIVneg D(Is=1e-16 N=1.1 Rs=0.26 )
.model sbcmSWneg SW(Ron=0.001 Roff=40 Von=50 Voff=0)
.model cmSWneg SW(Ron=0.001 Roff=20 Von=5 Voff=0)
.ends 82401444_pin
******
.subckt 82401444_vdd Anode Cathode
E1 N005 0 Positive Cathode 1
V1 Snap_A Snap_B 9.7
D1 0 Snap_B idealD
C1 snap_c 0 10p
R1 snap_c 0 1e6
D2 Test N006 idealD
V2 N006 N008 100
R2 N008 0 50
D3 N007 Test idealD
R3 N007 0 50
R4 Snap_C_LP snap_c 11
C2 Snap_C_LP 0 24p
S1 V3 Positive Snap_C_LP 0 snapback1SW
F1 0 Test V3 -1
R5 0 Test 1e100
R6 Cathode Positive 1e100
R7 Snap_A N005 1K
D4 N016 Cathode mainIV
R8 0 Snap_B 1e100
R9 0 snap_c 1e100
V3 B V3 0
R10 Test snap_c 1000
G1 0 snap_c 0 Snap_B -1
F2 0 N019 V4 +1
R11 N019 0 1e100
V4 B N013 0
S2 N014 N013 SBCM_C 0 sbcmSW
V5 SBCM_C N019 0.025
C3 N019 0 100p
D5 N019 N025 idealD
D6 N022 N019 idealD
R12 N029 0 50
R13 N022 0 50
F3 0 N020 V6 +1
R14 N020 0 1e100
V6 N014 N015 0
S3 N016 N015 CM_C 0 cmSW
V7 CM_C N020 1.75
C4 N020 0 50n
D7 N020 N026 idealD
D8 P001 N020 idealD
R15 N030 0 50
R16 P001 0 50
V8 N025 N029 100
V9 N026 N030 100
R17 N019 0 1e6
R18 N020 0 1e6
D12 Cathode N012 mainIVneg
F5 0 N017 V13 -1
R29 N017 0 1e100
V13 Negative N009 0
S5 N010 N009 SBCM_C_N 0 sbcmSWneg
V14 SBCM_C_N N017 1.25
C7 N017 0 350p
D13 N017 N023 idealD
D14 N021 N017 idealD
R30 N027 0 50
R31 N021 0 50
F6 0 N018 V15 -1
R32 N018 0 1e100
V15 N010 N011 0
S6 N012 N011 CM_C_N 0 cmSWneg
V16 CM_C_N N018 1.75
C8 N018 0 40n
D15 N018 N024 idealD
D16 P002 N018 idealD
R33 N028 0 50
R34 P002 0 50
V17 N023 N027 100
V18 N024 N028 100
R35 N017 0 1e6
R36 N018 0 1e6
L1 Anode N001 2.3n
C9 N001 N002 2.7p
R37 N002 Cathode 5.04
R38 N001 Cathode 1e7
D17 N001 Positive idealD
D18 Positive Cathode Before_snapback
D19 Negative N001 idealD
D20 Cathode Negative Before_snapback
D9 Cathode N012 mainIVneg1
.model D D
.model snapback1SW SW(Ron=0.01 Roff=1e6 Von=20 Voff=19.8)
.model mainIV D(Is=1e-16 N=6.8 Rs=0.14 )
.model sbcmSW SW(Ron=0.001 Roff=5 Von=0.1 Voff=0)
.model cmSW SW(Ron=0.001 Roff=16.6 Von=5 Voff=0)
* Positive
* Negative
.model idealD D(Is=1e-14 N=0.1 Rs=0.001 )
.model Before_snapback D(Is=1e-16 N=10.5 Rs=2)
.ic v(snap_c)=0
.ic v(snap_c_N)=0
.model mainIVneg D(Is=1e-16 N=1 Rs=0.21 )
.model mainIVneg1 D(Is=1e-16 N=1.8 Rs=0.54 )
.model sbcmSWneg SW(Ron=0.001 Roff=40 Von=10 Voff=0)
.model cmSWneg SW(Ron=0.001 Roff=20 Von=5 Voff=0)
.ends 82401444_vdd
******
.subckt 824012823_pin Anode Cathode
E1 N005 0 Positive Cathode 1
V1 Snap_A Snap_B 7.9
D1 0 Snap_B idealD
C1 snap_c 0 150p
R1 snap_c 0 1e6
D2 Test N006 idealD
V2 N006 N008 100
R2 N008 0 50
D3 N007 Test idealD
R3 N007 0 50
R4 Snap_C_LP snap_c 11
C2 Snap_C_LP 0 24p
S1 V3 Positive Snap_C_LP 0 snapback1SW
F1 0 Test V3 -1
R5 0 Test 1e100
R6 Cathode Positive 1e100
R7 Snap_A N005 1K
D4 N016 Cathode mainIV
R8 0 Snap_B 1e100
R9 0 snap_c 1e100
V3 B V3 0
R10 Test snap_c 1000
G1 0 snap_c 0 Snap_B -1
F2 0 N019 V4 +1
R11 N019 0 1e100
V4 B N013 0
S2 N014 N013 SBCM_C 0 sbcmSW
V5 SBCM_C N019 6.25
C3 N019 0 1200p
D5 N019 N025 idealD
D6 N022 N019 idealD
R12 N029 0 50
R13 N022 0 50
F3 0 N020 V6 +1
R14 N020 0 1e100
V6 N014 N015 0
S3 N016 N015 CM_C 0 cmSW
V7 CM_C N020 1.9
C4 N020 0 25n
D7 N020 N026 idealD
D8 P001 N020 idealD
R15 N030 0 50
R16 P001 0 50
V8 N025 N029 100
V9 N026 N030 100
R17 N019 0 1e6
R18 N020 0 1e6
D12 Cathode N012 mainIVneg
F5 0 N017 V13 -1
R29 N017 0 1e100
V13 Negative N009 0
S5 N010 N009 SBCM_C_N 0 sbcmSWneg
V14 SBCM_C_N N017 3.125
C7 N017 0 700p
D13 N017 N023 idealD
D14 N021 N017 idealD
R30 N027 0 50
R31 N021 0 50
F6 0 N018 V15 -1
R32 N018 0 1e100
V15 N010 N011 0
S6 N012 N011 CM_C_N 0 cmSWneg
V16 CM_C_N N018 1.9
C8 N018 0 29n
D15 N018 N024 idealD
D16 P002 N018 idealD
R33 N028 0 50
R34 P002 0 50
V17 N023 N027 100
V18 N024 N028 100
R35 N017 0 1e6
R36 N018 0 1e6
L1 Anode N001 0.84n
C9 N001 N002 0.26p
R37 N002 Cathode 14.8
R38 N001 Cathode 1e7
D17 N001 Positive idealD
D18 Positive Cathode Before_snapback
D19 Negative N001 idealD
D20 Cathode Negative Before_snapback
D9 Cathode N012 mainIVneg1
.model D D
.model snapback1SW SW(Ron=0.01 Roff=1e6 Von=5 Voff=4.8)
.model mainIV D(Is=1e-16 N=5.9 Rs=0.41)
.model sbcmSW SW(Ron=0.001 Roff=40 Von=25 Voff=0)
.model cmSW SW(Ron=0.001 Roff=12 Von=5.6 Voff=0)
* Positive
* Negative
.model idealD D(Is=1e-14 N=0.1 Rs=0.001 )
.model Before_snapback D(Is=1e-16 N=8.7 Rs=8)
.ic v(snap_c)=0
.ic v(snap_c_N)=0
.model mainIVneg D(Is=1e-16 N=1.05 Rs=0.69 )
.model mainIVneg1 D(Is=1e-16 N=1.5 Rs=0.57 )
.model sbcmSWneg SW(Ron=0.001 Roff=10 Von=25 Voff=0)
.model cmSWneg SW(Ron=0.001 Roff=10 Von=5.6 Voff=0)
.ends 824012823_pin
******
.subckt 824014883_pin Anode Cathode
E1 N005 0 Positive Cathode 1
V1 Snap_A Snap_B 7.8
D1 0 Snap_B idealD
C1 snap_c 0 1p
R1 snap_c 0 1e6
D2 Test N006 idealD
V2 N006 N008 100
R2 N008 0 50
D3 N007 Test idealD
R3 N007 0 50
R4 Snap_C_LP snap_c 11
C2 Snap_C_LP 0 24p
S1 V3 Positive Snap_C_LP 0 snapback1SW
F1 0 Test V3 -1
R5 0 Test 1e100
R6 Cathode Positive 1e100
R7 Snap_A N005 1K
D4 N016 Cathode mainIV
R8 0 Snap_B 1e100
R9 0 snap_c 1e100
V3 B V3 0
R10 Test snap_c 1000
G1 0 snap_c 0 Snap_B -1
F2 0 N019 V4 +1
R11 N019 0 1e100
V4 B N013 0
S2 N014 N013 SBCM_C 0 sbcmSW
V5 SBCM_C N019 7.5
C3 N019 0 500p
D5 N019 N025 idealD
D6 N022 N019 idealD
R12 N029 0 50
R13 N022 0 50
F3 0 N020 V6 +1
R14 N020 0 1e100
V6 N014 N015 0
S3 N016 N015 CM_C 0 cmSW
V7 CM_C N020 1.9
C4 N020 0 75n
D7 N020 N026 idealD
D8 P001 N020 idealD
R15 N030 0 50
R16 P001 0 50
V8 N025 N029 100
V9 N026 N030 100
R17 N019 0 1e6
R18 N020 0 1e6
D12 Cathode N012 mainIVneg
F5 0 N017 V13 -1
R29 N017 0 1e100
V13 Negative N009 0
S5 N010 N009 SBCM_C_N 0 sbcmSWneg
V14 SBCM_C_N N017 4.285714
C7 N017 0 300p
D13 N017 N023 idealD
D14 N021 N017 idealD
R30 N027 0 50
R31 N021 0 50
F6 0 N018 V15 -1
R32 N018 0 1e100
V15 N010 N011 0
S6 N012 N011 CM_C_N 0 cmSWneg
V16 CM_C_N N018 1.9
C8 N018 0 29n
D15 N018 N024 idealD
D16 P002 N018 idealD
R33 N028 0 50
R34 P002 0 50
V17 N023 N027 100
V18 N024 N028 100
R35 N017 0 1e6
R36 N018 0 1e6
L1 Anode N001 1.563n
C9 N001 N002 0.64
R37 N002 Cathode 15.61
R38 N001 Cathode 1e7
D17 N001 Positive idealD
D18 Positive Cathode Before_snapback
D19 Negative N001 idealD
D20 Cathode Negative Before_snapback
D9 Cathode N012 mainIVneg1
.model D D
.model snapback1SW SW(Ron=0.01 Roff=1e6 Von=5 Voff=4.8)
.model mainIV D(Is=1e-16 N=5.68 Rs=0.22 )
.model sbcmSW SW(Ron=0.001 Roff=40 Von=30 Voff=0)
.model cmSW SW(Ron=0.001 Roff=12 Von=5.6 Voff=0)
* Positive
* Negative
.model idealD D(Is=1e-14 N=0.1 Rs=0.001 )
.model Before_snapback D(Is=1e-16 N=7 Rs=8.4)
.ic v(snap_c)=0
*.ic v(snap_c_N)=0
.model mainIVneg D(Is=1e-16 N=1.1 Rs=0.42 )
.model mainIVneg1 D(Is=1e-16 N=1.5 Rs=0.53 )
.model sbcmSWneg SW(Ron=0.001 Roff=15 Von=30 Voff=0)
.model cmSWneg SW(Ron=0.001 Roff=10 Von=5.6 Voff=0)
.ends 824014883_pin
******
.subckt 824014885_pin Anode Cathode
E1 N005 0 Positive Cathode 1
V1 Snap_A Snap_B 10.3
D1 0 Snap_B idealD
C1 snap_c 0 250p
R1 snap_c 0 1e6
D2 Test N006 idealD
V2 N006 N008 100
R2 N008 0 50
D3 N007 Test idealD
R3 N007 0 50
R4 Snap_C_LP snap_c 11
C2 Snap_C_LP 0 24p
S1 V3 Positive Snap_C_LP 0 snapback1SW
F1 0 Test V3 -1
R5 0 Test 1e100
R6 Cathode Positive 1e100
R7 Snap_A N005 1K
D4 N016 Cathode mainIV
R8 0 Snap_B 1e100
R9 0 snap_c 1e100
V3 B V3 0
R10 Test snap_c 1000
G1 0 snap_c 0 Snap_B -1
F2 0 N019 V4 +1
R11 N019 0 1e100
V4 B N013 0
S2 N014 N013 SBCM_C 0 sbcmSW
V5 SBCM_C N019 7.5
C3 N019 0 400p
D5 N019 N025 idealD
D6 N022 N019 idealD
R12 N029 0 50
R13 N022 0 50
F3 0 N020 V6 +1
R14 N020 0 1e100
V6 N014 N015 0
S3 N016 N015 CM_C 0 cmSW
V7 CM_C N020 1.9
C4 N020 0 75n
D7 N020 N026 idealD
D8 P001 N020 idealD
R15 N030 0 50
R16 P001 0 50
V8 N025 N029 100
V9 N026 N030 100
R17 N019 0 1e6
R18 N020 0 1e6
D12 Cathode N012 mainIVneg
F5 0 N017 V13 -1
R29 N017 0 1e100
V13 Negative N009 0
S5 N010 N009 SBCM_C_N 0 sbcmSWneg
V14 SBCM_C_N N017 4.285714
C7 N017 0 550p
D13 N017 N023 idealD
D14 N021 N017 idealD
R30 N027 0 50
R31 N021 0 50
F6 0 N018 V15 -1
R32 N018 0 1e100
V15 N010 N011 0
S6 N012 N011 CM_C_N 0 cmSWneg
V16 CM_C_N N018 1.9
C8 N018 0 29n
D15 N018 N024 idealD
D16 P002 N018 idealD
R33 N028 0 50
R34 P002 0 50
V17 N023 N027 100
V18 N024 N028 100
R35 N017 0 1e6
R36 N018 0 1e6
L1 Anode N001 0.36n
C9 N001 N002 0.61p
R37 N002 Cathode 15.4
R38 N001 Cathode 1e7
D17 N001 Positive idealD
D18 Positive Cathode Before_snapback
D19 Negative N001 idealD
D20 Cathode Negative Before_snapback
D9 Cathode N012 mainIVneg1
D10 Cathode N012 mainIVneg2
.model D D
.model snapback1SW SW(Ron=0.01 Roff=1e6 Von=5 Voff=4.8)
.model mainIV D(Is=1e-16 N=7.15 Rs=0.2 )
.model sbcmSW SW(Ron=0.001 Roff=40 Von=30 Voff=0)
.model cmSW SW(Ron=0.001 Roff=12 Von=5.6 Voff=0)
* Positive
* Negative
.model idealD D(Is=1e-14 N=0.1 Rs=0.001 )
.model Before_snapback D(Is=1e-16 N=11 Rs=8)
.ic v(snap_c)=0
*.ic v(snap_c_N)=0
.model mainIVneg D(Is=1e-16 N=1.05 Rs=0.24 )
.model mainIVneg1 D(Is=1e-16 N=1.4 Rs=0.4 )
.model mainIVneg2 D(Is=1e-16 N=2.4 Rs=1.7)
.model sbcmSWneg SW(Ron=0.001 Roff=10 Von=30 Voff=0)
.model cmSWneg SW(Ron=0.001 Roff=10 Von=5.6 Voff=0)
.ends 824014885_pin
******
.subckt 82401646_pin14 Anode Cathode
E1 N005 0 Positive Cathode 1
V1 Snap_A Snap_B 9.33
D1 0 Snap_B idealD
C1 snap_c 0 300p
R1 snap_c 0 1e6
D2 Test N006 idealD
V2 N006 N008 100
R2 N008 0 50
D3 N007 Test idealD
R3 N007 0 50
R4 Snap_C_LP snap_c 11
C2 Snap_C_LP 0 24p
S1 V3 Positive Snap_C_LP 0 snapback1SW
F1 0 Test V3 -1
R5 0 Test 1e100
R6 Cathode Positive 1e100
R7 Snap_A N005 1K
D4 N016 Cathode mainIV
R8 0 Snap_B 1e100
R9 0 snap_c 1e100
V3 B V3 0
R10 Test snap_c 1000
G1 0 snap_c 0 Snap_B -1
F2 0 N018 V4 +1
R11 N018 0 1e100
V4 B N013 0
S2 N014 N013 SBCM_C 0 sbcmSW
V5 SBCM_C N018 15
C3 N018 0 400p
D5 N018 N024 idealD
D6 N021 N018 idealD
R12 N028 0 50
R13 N021 0 50
F3 0 N019 V6 +1
R14 N019 0 1e100
V6 N014 N015 0
S3 N016 N015 CM_C 0 cmSW
V7 CM_C N019 1.75
C4 N019 0 50n
D7 N019 N025 idealD
D8 P001 N019 idealD
R15 N029 0 50
R16 P001 0 50
V8 N024 N028 100
V9 N025 N029 100
R17 N018 0 1e6
R18 N019 0 1e6
D12 Cathode N012 mainIVneg
F5 0 SBCM_C_N V13 -1
R29 SBCM_C_N 0 1e100
V13 Negative N009 0
S5 N010 N009 SBCM_C_N 0 sbcmSW
C7 SBCM_C_N 0 80p
D13 SBCM_C_N N022 idealD
D14 N020 SBCM_C_N idealD
R30 N026 0 50
R31 N020 0 50
F6 0 N017 V15 -1
R32 N017 0 1e100
V15 N010 N011 0
S6 N012 N011 CM_C_N 0 cmSW
V16 CM_C_N N017 1.75
C8 N017 0 15n
D15 N017 N023 idealD
D16 P002 N017 idealD
R33 N027 0 50
R34 P002 0 50
V17 N022 N026 100
V18 N023 N027 100
R35 SBCM_C_N 0 1e6
R36 N017 0 1e6
L1 Anode N001 0.8n
C9 N001 N002 0.47p
R37 N002 Cathode 13.55
R38 N001 Cathode 1e7
D17 N001 Positive idealD
D18 Positive Cathode Before_snapback
D19 Negative N001 idealD
D20 Cathode Negative Before_snapback
D9 Cathode N012 mainIVneg1
.model D D
.model snapback1SW SW(Ron=0.001 Roff=1e6 Von=30 Voff=29.8)
.model mainIV D(Is=1e-16 N=6.6 Rs=0.28 )
.model sbcmSW SW(Ron=0.001 Roff=40 Von=60 Voff=0)
.model cmSW SW(Ron=0.001 Roff=30 Von=5 Voff=0)
* Positive
* Negative
.model idealD D(Is=1e-14 N=0.1 Rs=0.001 )
.model Before_snapback D(Is=1e-16 N=10 Rs=4 )
.ic v(snap_c)=0
*.ic v(snap_c_N)=0
.model mainIVneg D(Is=1e-16 N=1.1 Rs=0.69 )
.model mainIVneg1 D(Is=1e-16 N=1.4 Rs=0.46 )
.ends 82401646_pin14
******
.subckt 82401646_pin56 Anode Cathode
E1 N005 0 Positive Cathode 1
V1 Snap_A Snap_B 9.63
D1 0 Snap_B idealD
C1 snap_c 0 500p
R1 snap_c 0 1e6
D2 Test N006 idealD
V2 N006 N008 100
R2 N008 0 50
D3 N007 Test idealD
R3 N007 0 50
R4 Snap_C_LP snap_c 11
C2 Snap_C_LP 0 24p
S1 V3 Positive Snap_C_LP 0 snapback1SW
F1 0 Test V3 -1
R5 0 Test 1e100
R6 Cathode Positive 1e100
R7 Snap_A N005 1K
D4 N016 Cathode mainIV
R8 0 Snap_B 1e100
R9 0 snap_c 1e100
V3 B V3 0
R10 Test snap_c 1000
G1 0 snap_c 0 Snap_B -1
F2 0 N018 V4 +1
R11 N018 0 1e100
V4 B N013 0
S2 N014 N013 SBCM_C 0 sbcmSW
V5 SBCM_C N018 15
C3 N018 0 300p
D5 N018 N024 idealD
D6 N021 N018 idealD
R12 N028 0 50
R13 N021 0 50
F3 0 N019 V6 +1
R14 N019 0 1e100
V6 N014 N015 0
S3 N016 N015 CM_C 0 cmSW
V7 CM_C N019 1.75
C4 N019 0 50n
D7 N019 N025 idealD
D8 P001 N019 idealD
R15 N029 0 50
R16 P001 0 50
V8 N024 N028 100
V9 N025 N029 100
R17 N018 0 1e6
R18 N019 0 1e6
D12 Cathode N012 mainIVneg
F5 0 SBCM_C_N V13 -1
R29 SBCM_C_N 0 1e100
V13 Negative N009 0
S5 N010 N009 SBCM_C_N 0 sbcmSWneg
C7 SBCM_C_N 0 80p
D13 SBCM_C_N N022 idealD
D14 N020 SBCM_C_N idealD
R30 N026 0 50
R31 N020 0 50
F6 0 N017 V15 -1
R32 N017 0 1e100
V15 N010 N011 0
S6 N012 N011 CM_C_N 0 cmSW
V16 CM_C_N N017 1.75
C8 N017 0 30n
D15 N017 N023 idealD
D16 P002 N017 idealD
R33 N027 0 50
R34 P002 0 50
V17 N022 N026 100
V18 N023 N027 100
R35 SBCM_C_N 0 1e6
R36 N017 0 1e6
L1 Anode N001 0.61n
C9 N001 N002 0.4p
R37 N002 Cathode 20.5
R38 N001 Cathode 1e7
D17 N001 Positive idealD
D18 Positive Cathode Before_snapback
D19 Negative N001 idealD
D20 Cathode Negative Before_snapback
D21 Cathode N012 mainIVneg1
.model D D
.model snapback1SW SW(Ron=0.001 Roff=1e6 Von=20 Voff=19.8)
.model mainIV D(Is=1e-16 N=7 Rs=0.26 )
.model sbcmSW SW(Ron=0.001 Roff=20 Von=50 Voff=0)
.model cmSW SW(Ron=0.001 Roff=30 Von=5 Voff=0)
* Positive
* Negative
.model idealD D(Is=1e-14 N=0.1 Rs=0.001 )
.model Before_snapback D(Is=1e-16 N=10.4 Rs=4 )
.ic v(snap_c)=0
*.ic v(snap_c_N)=0
.model mainIVneg D(Is=1e-16 N=1.1 Rs=0.6 )
.model mainIVneg1 D(Is=1e-16 N=1.5 Rs=0.49 )
.model sbcmSWneg SW(Ron=0.001 Roff=40 Von=50 Voff=0)
.ends 82401646_pin56
******
.subckt 82401646_vdd Anode Cathode
E1 N005 0 Positive Cathode 1
V1 Snap_A Snap_B 9.69
D1 0 Snap_B idealD
C1 snap_c 0 100p
R1 snap_c 0 1e6
D2 Test N006 idealD
V2 N006 N008 100
R2 N008 0 50
D3 N007 Test idealD
R3 N007 0 50
R4 Snap_C_LP snap_c 11
C2 Snap_C_LP 0 24p
S1 V3 Positive Snap_C_LP 0 snapback1SW
F1 0 Test V3 -1
R5 0 Test 1e100
R6 Cathode Positive 1e100
R7 Snap_A N005 1K
D4 N016 Cathode mainIV
R8 0 Snap_B 1e100
R9 0 snap_c 1e100
V3 B V3 0
R10 Test snap_c 1000
G1 0 snap_c 0 Snap_B -1
F2 0 N019 V4 +1
R11 N019 0 1e100
V4 B N013 0
S2 N014 N013 SBCM_C 0 sbcmSW
V5 SBCM_C N019 12.5
C3 N019 0 500p
D5 N019 N025 idealD
D6 N022 N019 idealD
R12 N029 0 50
R13 N022 0 50
F3 0 N020 V6 +1
R14 N020 0 1e100
V6 N014 N015 0
S3 N016 N015 CM_C 0 cmSW
V7 CM_C N020 1.3
C4 N020 0 1n
D7 N020 N026 idealD
D8 P001 N020 idealD
R15 N030 0 50
R16 P001 0 50
V8 N025 N029 100
V9 N026 N030 100
R17 N019 0 1e6
R18 N020 0 1e6
D12 Cathode N012 mainIVneg
F5 0 N017 V13 -1
R29 N017 0 1e100
V13 Negative N009 0
S5 N010 N009 SBCM_C_N 0 sbcmSWneg
V14 SBCM_C_N N017 12.5
C7 N017 0 5p
D13 N017 N023 idealD
D14 N021 N017 idealD
R30 N027 0 50
R31 N021 0 50
F6 0 N018 V15 -1
R32 N018 0 1e100
V15 N010 N011 0
S6 N012 N011 CM_C_N 0 cmSWneg
V16 CM_C_N N018 1.3
C8 N018 0 1n
D15 N018 N024 idealD
D16 P002 N018 idealD
R33 N028 0 50
R34 P002 0 50
V17 N023 N027 100
V18 N024 N028 100
R35 N017 0 1e6
R36 N018 0 1e6
L1 Anode N001 6.4n
C9 N001 N002 1.5p
R37 N002 Cathode 10.365
R38 N001 Cathode 1e7
D17 N001 Positive idealD
D18 Positive Cathode Before_snapback
D19 Negative N001 idealD
D20 Cathode Negative Before_snapback
.model D D
.model snapback1SW SW(Ron=0.001 Roff=1e6 Von=3 Voff=2.8)
.model mainIV D(Is=6.8e-17 N=6.6 Rs=0.2 )
.model sbcmSW SW(Ron=0.001 Roff=30 Von=50 Voff=0)
.model cmSW SW(Ron=0.001 Roff=150 Von=3.2 Voff=0)
* Positive
* Negative
.model idealD D(Is=1e-14 N=0.1 Rs=0.001 )
.model Before_snapback D(Is=2.55e-16 N=10.3 Rs=4 )
.ic v(snap_c)=0
*.ic v(snap_c_N)=0
.model mainIVneg D(Is=6.8e-17 N=1.1 Rs=0.19 )
.model sbcmSWneg SW(Ron=0.001 Roff=5 Von=50 Voff=0)
.model cmSWneg SW(Ron=0.001 Roff=1 Von=3.2 Voff=0)
.ends 82401646_vdd
******
.subckt 824014_pin Anode Cathode
E1 N005 0 Positive Cathode 1
V1 Snap_A Snap_B 10.07
D1 0 Snap_B idealD
C1 snap_c 0 350p
R1 snap_c 0 1e6
D2 Test N006 idealD
V2 N006 N008 100
R2 N008 0 50
D3 N007 Test idealD
R3 N007 0 50
R4 Snap_C_LP snap_c 11
C2 Snap_C_LP 0 24p
S1 V3 Positive Snap_C_LP 0 snapback1SW
F1 0 Test V3 -1
R5 0 Test 1e100
R6 Cathode Positive 1e100
R7 Snap_A N005 1K
D4 N016 Cathode mainIV
R8 0 Snap_B 1e100
R9 0 snap_c 1e100
V3 B V3 0
R10 Test snap_c 1000
G1 0 snap_c 0 Snap_B -1
F2 0 N019 V4 +1
R11 N019 0 1e100
V4 B N013 0
S2 N014 N013 SBCM_C 0 sbcmSW
V5 SBCM_C N019 10
C3 N019 0 400p
D5 N019 N025 idealD
D6 N022 N019 idealD
R12 N029 0 50
R13 N022 0 50
F3 0 N020 V6 +1
R14 N020 0 1e100
V6 N014 N015 0
S3 N016 N015 CM_C 0 cmSW
V7 CM_C N020 2
C4 N020 0 40n
D7 N020 N026 idealD
D8 P001 N020 idealD
R15 N030 0 50
R16 P001 0 50
V8 N025 N029 100
V9 N026 N030 100
R17 N019 0 1e6
R18 N020 0 1e6
D12 Cathode N012 mainIVneg
F5 0 N017 V13 -1
R29 N017 0 1e100
V13 Negative N009 0
S5 N010 N009 SBCM_C_N 0 sbcmSWneg
V14 SBCM_C_N N017 10
C7 N017 0 5p
D13 N017 N023 idealD
D14 N021 N017 idealD
R30 N027 0 50
R31 N021 0 50
F6 0 N018 V15 -1
R32 N018 0 1e100
V15 N010 N011 0
S6 N012 N011 CM_C_N 0 cmSWneg
V16 CM_C_N N018 2
C8 N018 0 7n
D15 N018 N024 idealD
D16 P002 N018 idealD
R33 N028 0 50
R34 P002 0 50
V17 N023 N027 100
V18 N024 N028 100
R35 N017 0 1e6
R36 N018 0 1e6
L1 Anode N001 1.54n
C9 N001 N002 0.73p
R37 N002 Cathode 18.5
R38 N001 Cathode 1e7
D17 N001 Positive idealD
D18 Positive Cathode Before_snapback
D19 Negative N001 idealD
D20 Cathode Negative Before_snapback
D9 Cathode N012 mainIVneg1
.model D D
.model snapback1SW SW(Ron=0.01 Roff=1e6 Von=3 Voff=2.8)
.model mainIV D(Is=6.8e-17 N=7.3 Rs=0.23 )
.model sbcmSW SW(Ron=0.001 Roff=50 Von=40 Voff=0)
.model cmSW SW(Ron=0.001 Roff=10 Von=6 Voff=0)
* Positive
* Negative
.model idealD D(Is=1e-14 N=0.1 Rs=0.001 )
.model Before_snapback D(Is=2.55e-16 N=10 Rs=5.8)
.ic v(snap_c)=0
*.ic v(snap_c_N)=0
.model mainIVneg D(Is=6.8e-17 N=1.1 Rs=0.27)
.model sbcmSWneg SW(Ron=0.001 Roff=33 Von=40 Voff=0)
.model cmSWneg SW(Ron=0.001 Roff=150 Von=6 Voff=0)
.model mainIVneg1 D(Is=6.8e-17 N=1.8 Rs=1)
.ends 824014_pin
******
.subckt 824014_vdd Anode Cathode
E1 N005 0 Positive Cathode 1
V1 Snap_A Snap_B 9.9
D1 0 Snap_B idealD
C1 snap_c 0 300p
R1 snap_c 0 1e6
D2 Test N006 idealD
V2 N006 N008 100
R2 N008 0 50
D3 N007 Test idealD
R3 N007 0 50
R4 Snap_C_LP snap_c 10
C2 Snap_C_LP 0 24p
S1 V3 Positive Snap_C_LP 0 snapback1SW
F1 0 Test V3 -1
R5 0 Test 1e100
R6 Cathode Positive 1e100
R7 Snap_A N005 1K
D4 N016 Cathode mainIV
R8 0 Snap_B 1e100
R9 0 snap_c 1e100
V3 B V3 0
R10 Test snap_c 1000
G1 0 snap_c 0 Snap_B -1
F2 0 N019 V4 +1
R11 N019 0 1e100
V4 B N013 0
S2 N014 N013 SBCM_C 0 sbcmSW
V5 SBCM_C N019 12.5
C3 N019 0 500p
D5 N019 N025 idealD
D6 N022 N019 idealD
R12 N029 0 50
R13 N022 0 50
F3 0 N020 V6 +1
R14 N020 0 1e100
V6 N014 N015 0
S3 N016 N015 CM_C 0 cmSW
V7 CM_C N020 1.5
C4 N020 0 150n
D7 N020 N026 idealD
D8 P001 N020 idealD
R15 N030 0 50
R16 P001 0 50
V8 N025 N029 100
V9 N026 N030 100
R17 N019 0 1e6
R18 N020 0 1e6
D12 Cathode N012 mainIVneg
F5 0 N017 V13 -1
R29 N017 0 1e100
V13 Negative N009 0
S5 N010 N009 SBCM_C_N 0 sbcmSWneg
V14 SBCM_C_N N017 10
C7 N017 0 200p
D13 N017 N023 idealD
D14 N021 N017 idealD
R30 N027 0 50
R31 N021 0 50
F6 0 N018 V15 -1
R32 N018 0 1e100
V15 N010 N011 0
S6 N012 N011 CM_C_N 0 cmSWneg
V16 CM_C_N N018 1.75
C8 N018 0 50n
D15 N018 N024 idealD
D16 P002 N018 idealD
R33 N028 0 50
R34 P002 0 50
V17 N023 N027 100
V18 N024 N028 100
R35 N017 0 1e6
R36 N018 0 1e6
L1 Anode N001 1.3n
C9 N001 N002 5.2p
R37 N002 Cathode 3.25
R38 N001 Cathode 1e7
D17 N001 Positive idealD
D18 Positive Cathode Before_snapback
D19 Negative N001 idealD
D20 Cathode Negative Before_snapback
D9 Cathode N012 mainIVneg1
D10 Cathode N012 mainIVneg2
.model D D
.model snapback1SW SW(Ron=0.01 Roff=1e6 Von=3 Voff=2.8)
.model mainIV D(Is=6.8e-17 N=7 Rs=0.115 )
.model sbcmSW SW(Ron=0.001 Roff=40 Von=50 Voff=0)
.model cmSW SW(Ron=0.001 Roff=10 Von=4 Voff=0)
* Positive
* Negative
.model idealD D(Is=1e-14 N=0.1 Rs=0.001 )
.model Before_snapback D(Is=2e-16 N=10.6 Rs=2)
.ic v(snap_c)=0
*.ic v(snap_c_N)=0
.model mainIVneg D(Is=6.8e-17 N=0.9 Rs=0.26 )
.model mainIVneg1 D(Is=6.8e-17 N=1.4 Rs=0.34 )
.model sbcmSWneg SW(Ron=0.001 Roff=33 Von=50 Voff=0)
.model cmSWneg SW(Ron=0.001 Roff=20 Von=4 Voff=0)
.model mainIVneg2 D(Is=6.8e-17 N=1.6 Rs=0.245 )
.ends 824014_vdd
******