**************************************************
* Manufacturer:           Wurth Elektronik 
* Kinds:                  TVS Diode - Standard Series
* Matchcode:              WE-TVS
* Library Type:           LTspice
* Version:                rev25a
* Created/modified by:    Ella      
* Date and Time:          2025-02-26
* Team:                   eiSos EDA Service  
* Contact:                libraries@we-online.com
* The models were generated by Würth Elektronik in cooperation with Graz University of Technology - Institute of Electronics
**************************************************
* Copyright(C) 2025 Würth Elektronik eiSos GmbH & Co. KG
* All Rights Reserved.
**************************************************
* Disclaimer: While Würth Elektronik eiSos has made every reasonable effort to ensure the accuracy
* of the simulation models provided, Würth Elektronik eiSos does not guarantee the exemption of error on
* the simulation models, nor does Würth Elektronik eiSos guarantee that the simulation model is current.
* Würth Elektronik eiSos reserves the right to make any adjustments at any time without notice.
* Würth Elektronik eiSos expressly disclaims all implied warranties regarding this simulation model.
**************************************************
.subckt SC70_82402374 IO1 IO2 IO3 IO4 GND
XU1 IO4 GND 82402374_pin
XU2 IO3 GND 82402374_pin
XU3 IO2 GND 82402374_pin
XU4 IO1 GND 82402374_pin
.ends SC70_82402374
******
.subckt SC70_82402375 IO1 IO2 IO3 IO4 IO5 GND
XU1 IO1 GND 82402375_pin
XU2 IO2 GND 82402375_pin
XU3 IO3 GND 82402375_pin
XU4 IO4 GND 82402375_pin
XU5 IO5 GND 82402375_pin
.ends SC70_82402375
******
.subckt SOT23_824021 IO1 IO2 GND
XU1 IO1 GND 824021_pin
XU2 IO2 GND 824021_pin
C1 IO2 IO1 27.5p
.ends SOT23_824021
******
.subckt SOT23_824022 IO1 IO2 GND
XU1 IO1 GND 824022_pin
XU2 IO2 GND 824022_pin
.ends SOT23_824022
******
.subckt SOT23_82402304 IO1 IO2 IO3 IO4 GND
XU1 IO1 GND 82402304_pin
XU2 IO2 GND 82402304_pin
XU3 IO3 GND 82402304_pin
XU4 IO4 GND 82402304_pin
.ends SOT23_82402304
******
.subckt SOT23_82402305 IO1 IO2 IO3 IO4 IO5 GND
XU1 IO1 GND 82402304_pin
XU2 IO2 GND 82402304_pin
XU3 IO3 GND 82402304_pin
XU4 IO4 GND 82402304_pin
XU5 IO5 GND 82402304_pin
.ends SOT23_82402305
******
.subckt SOT23_824094024 IO1 IO2 GND
XU1 IO1 GND 824094024_pin
XU2 IO2 GND 824094024_pin
.ends SOT23_824094024
**************************************************
.subckt DFN1610_824031815 Anode Cathode
E1 N005 0 Positive Cathode 1
V1 Snap_A Snap_B 9.32
D1 0 Snap_B idealD
C1 snap_c 0 10p
R1 snap_c 0 1e6
D2 Test N006 idealD
V2 N006 N008 100
R2 N008 0 50
D3 N007 Test idealD
R3 N007 0 50
R4 Snap_C_LP snap_c 11
C2 Snap_C_LP 0 24p
S1 V3 Positive Snap_C_LP 0 snapback1SW
F1 0 Test V3 -1
R5 0 Test 1e100
R6 Cathode Positive 1e100
R7 Snap_A N005 1K
D4 N016 Cathode mainIV
R8 0 Snap_B 1e100
R9 0 snap_c 1e100
V3 B V3 0
R10 Test snap_c 1000
G1 0 snap_c 0 Snap_B -1
F2 0 N019 V4 +1
R11 N019 0 1e100
V4 B N013 0
S2 N014 N013 SBCM_C 0 sbcmSW
V5 SBCM_C N019 6.25
C3 N019 0 650p
D5 N019 N025 idealD
D6 N022 N019 idealD
R12 N029 0 50
R13 N022 0 50
F3 0 N020 V6 +1
R14 N020 0 1e100
V6 N014 N015 0
S3 N016 N015 CM_C 0 cmSW
V7 CM_C N020 1.25
C4 N020 0 500n
D7 N020 N026 idealD
D8 P001 N020 idealD
R15 N030 0 50
R16 P001 0 50
V8 N025 N029 100
V9 N026 N030 100
R17 N019 0 1e6
R18 N020 0 1e6
D12 Cathode N012 mainIVneg
F5 0 N017 V13 -1
R29 N017 0 1e100
V13 Negative N009 0
S5 N010 N009 SBCM_C_N 0 sbcmSWneg
V14 SBCM_C_N N017 6
C7 N017 0 2n
D13 N017 N023 idealD
D14 N021 N017 idealD
R30 N027 0 50
R31 N021 0 50
F6 0 N018 V15 -1
R32 N018 0 1e100
V15 N010 N011 0
S6 N012 N011 CM_C_N 0 cmSWneg
V16 CM_C_N N018 1.025
C8 N018 0 1300n
D15 N018 N024 idealD
D16 P002 N018 idealD
R33 N028 0 50
R34 P002 0 50
V17 N023 N027 100
V18 N024 N028 100
R35 N017 0 1e6
R36 N018 0 1e6
L1 Anode N001 0.48n
C9 N001 N002 213p
R37 N002 Cathode 2
R38 N001 Cathode 1e7
D17 N001 Positive idealD
D18 Positive Cathode Before_snapback
D19 Negative N001 idealD
D20 Cathode Negative Before_snapback
D9 Cathode N012 mainIVneg1
D10 Cathode N012 mainIVneg2
.model D D
.model snapback1SW SW(Ron=0.01 Roff=1e6 Von=3 Voff=2.8)
.model mainIV D(Is=6.8e-16 N=5.5 Rs=0.017)
.model sbcmSW SW(Ron=0.001 Roff=30 Von=25 Voff=0)
.model cmSW SW(Ron=0.001 Roff=7 Von=3 Voff=0)
* Positive
* Negative
.model idealD D(Is=1e-14 N=0.1 Rs=0.001 )
.model Before_snapback D(Is=1e-16 N=9.7 Rs=1.3)
.ic v(snap_c)=0
*.ic v(snap_c_N)=0
.model mainIVneg D(Is=6.8e-16 N=0.75 Rs=0.11 )
.model mainIVneg1 D(Is=6.8e-16 N=1.1 Rs=0.058 )
.model sbcmSWneg SW(Ron=0.001 Roff=8 Von=30 Voff=0)
.model cmSWneg SW(Ron=0.001 Roff=50 Von=2.1 Voff=0)
.model mainIVneg2 D(Is=6.8e-16 N=1.8 Rs=0.16 )
.ends DFN1610_824031815
******
.subckt DFN1610_824032813 Anode Cathode
E1 N005 0 Positive Cathode 1
V1 Snap_A Snap_B 5.15
D1 0 Snap_B idealD
C1 snap_c 0 150p
R1 snap_c 0 1e6
D2 Test N007 idealD
V2 N007 N011 100
R2 N011 0 50
D3 N009 Test idealD
R3 N009 0 50
R4 Snap_C_LP snap_c 11
C2 Snap_C_LP 0 24p
S1 V3 Positive Snap_C_LP 0 snapback1SW
F1 0 Test V3 -1
R5 0 Test 1e100
R6 Cathode Positive 1e100
R7 Snap_A N005 1K
D4 N020 Cathode mainIV
R8 0 Snap_B 1e100
R9 0 snap_c 1e100
V3 B V3 0
R10 Test snap_c 1000
G1 0 snap_c 0 Snap_B -1
F2 0 N023 V4 +1
R11 N023 0 1e3
V4 B N017 0
S2 N018 N017 SBCM_C 0 sbcmSW
V5 SBCM_C N023 3.75
C3 N023 0 100p
D5 N023 N029 idealD
D6 N026 N023 idealD
R12 N033 0 50
R13 N026 0 50
F3 0 N024 V6 +1
R14 N024 0 1e3
V6 N018 N019 0
S3 N020 N019 CM_C 0 cmSW
V7 CM_C N024 1.75
C4 N024 0 50n
D7 N024 N030 idealD
D8 P001 N024 idealD
R15 N034 0 50
R16 P001 0 50
V8 N029 N033 100
V9 N030 N034 100
R17 N023 0 1e6
R18 N024 0 1e6
D12 Cathode N016 mainIV
F5 0 N021 V13 -1
R29 N021 0 1e3
V13 B_N N013 0
S5 N014 N013 SBCM_C_N 0 sbcmSW
V14 SBCM_C_N N021 2.5
C7 N021 0 100p
D13 N021 N027 idealD
D14 N025 N021 idealD
R30 N031 0 50
R31 N025 0 50
F6 0 N022 V15 -1
R32 N022 0 1e3
V15 N014 N015 0
S6 N016 N015 CM_C_N 0 cmSW
V16 CM_C_N N022 1.75
C8 N022 0 50n
D15 N022 N028 idealD
D16 P002 N022 idealD
R33 N032 0 50
R34 P002 0 50
V17 N027 N031 100
V18 N028 N032 100
R35 N021 0 1e6
R36 N022 0 1e6
L1 Anode N001 0.4n
C9 N001 N002 247p
R37 N002 Cathode 0.06
R38 N001 Cathode 1e7
D17 N001 Positive idealD
D18 Positive Cathode Before_snapback
D19 Negative N001 idealD
D20 Cathode Negative Before_snapback
E2 N006 0 Negative Cathode -1
V10 Snap_A_N Snap_B_N 5.15
D9 0 Snap_B_N idealD
C5 snap_c_N 0 150p
R19 snap_c_N 0 1e6
D10 Test_N N008 idealD
V11 N008 N012 100
R20 N012 0 50
D11 N010 Test_N idealD
R21 N010 0 50
R22 Snap_C_LP_N snap_c_N 11
C6 Snap_C_LP_N 0 24p
S4 V3 Negative Snap_C_LP_N 0 snapback1SW
F4 0 Test_N V12 +1
R23 0 Test_N 1e100
R24 Cathode Negative 1e100
R25 Snap_A_N N006 1K
R26 0 Snap_B_N 1e100
R27 0 snap_c_N 1e100
V12 B_N V3 0
R28 Test_N snap_c_N 800
G2 0 snap_c_N 0 Snap_B_N -1
.model D D
.model snapback1SW SW(Ron=0.001 Roff=1e6 Von=10 Voff=9.8)
.model mainIV D(Is=6.8e-17 N=4.55 Rs=0.014)
.model sbcmSW SW(Ron=0.001 Roff=40 Von=15 Voff=0)
.model cmSW SW(Ron=0.001 Roff=25 Von=5 Voff=0)
* Positive
* Negative
.model idealD D(Is=1e-14 N=0.1 Rs=0.001 )
.model Before_snapback D(Is=2.55e-16 N=5 Rs=52.2)
.ic v(snap_c)=0
.ic v(snap_c_N)=0
.ends DFN1610_824032813
******
.subckt DFN1610_824032815 Anode Cathode
E1 N005 0 Positive Cathode 1
V1 Snap_A Snap_B 8.59
D1 0 Snap_B idealD
C1 snap_c 0 1p
R1 snap_c 0 1e6
D2 Test N007 idealD
V2 N007 N011 100
R2 N011 0 50
D3 N009 Test idealD
R3 N009 0 50
R4 Snap_C_LP snap_c 11
C2 Snap_C_LP 0 24p
S1 V3 Positive Snap_C_LP 0 snapback1SW
F1 0 Test V3 -1
R5 0 Test 1e100
R6 Cathode Positive 1e100
R7 Snap_A N005 1K
D4 N020 Cathode mainIV
R8 0 Snap_B 1e100
R9 0 snap_c 1e100
V3 B V3 0
R10 Test snap_c 1000
G1 0 snap_c 0 Snap_B -1
F2 0 N023 V4 +1
R11 N023 0 1e3
V4 B N017 0
S2 N018 N017 SBCM_C 0 sbcmSW
V5 SBCM_C N023 2.5
C3 N023 0 500p
D5 N023 N029 idealD
D6 N026 N023 idealD
R12 N033 0 50
R13 N026 0 50
F3 0 N024 V6 +1
R14 N024 0 1e3
V6 N018 N019 0
S3 N020 N019 CM_C 0 cmSW
V7 CM_C N024 1.75
C4 N024 0 20n
D7 N024 N030 idealD
D8 P001 N024 idealD
R15 N034 0 50
R16 P001 0 50
V8 N029 N033 100
V9 N030 N034 100
R17 N023 0 1e6
R18 N024 0 1e6
D12 Cathode N016 mainIV
F5 0 N021 V13 -1
R29 N021 0 1e3
V13 B_N N013 0
S5 N014 N013 SBCM_C_N 0 sbcmSW
V14 SBCM_C_N N021 2.5
C7 N021 0 500p
D13 N021 N027 idealD
D14 N025 N021 idealD
R30 N031 0 50
R31 N025 0 50
F6 0 N022 V15 -1
R32 N022 0 1e3
V15 N014 N015 0
S6 N016 N015 CM_C_N 0 cmSW
V16 CM_C_N N022 1.75
C8 N022 0 20n
D15 N022 N028 idealD
D16 P002 N022 idealD
R33 N032 0 50
R34 P002 0 50
V17 N027 N031 100
V18 N028 N032 100
R35 N021 0 1e6
R36 N022 0 1e6
L1 Anode N001 0.6n
C9 N001 N002 148p
R37 N002 Cathode 0.922
R38 N001 Cathode 1e7
D17 N001 Positive idealD
D18 Positive Cathode Before_snapback
D19 Negative N001 idealD
D20 Cathode Negative Before_snapback
E2 N006 0 Negative Cathode -1
V10 Snap_A_N Snap_B_N 8.59
D9 0 Snap_B_N idealD
C5 snap_c_N 0 1p
R19 snap_c_N 0 1e6
D10 Test_N N008 idealD
V11 N008 N012 100
R20 N012 0 50
D11 N010 Test_N idealD
R21 N010 0 50
R22 Snap_C_LP_N snap_c_N 11
C6 Snap_C_LP_N 0 24p
S4 V3 Negative Snap_C_LP_N 0 snapback1SW
F4 0 Test_N V12 +1
R23 0 Test_N 1e100
R24 Cathode Negative 1e100
R25 Snap_A_N N006 1K
R26 0 Snap_B_N 1e100
R27 0 snap_c_N 1e100
V12 B_N V3 0
R28 Test_N snap_c_N 800
G2 0 snap_c_N 0 Snap_B_N -1
.model D D
.model snapback1SW SW(Ron=0.001 Roff=1e6 Von=10 Voff=9.8)
.model mainIV D(Is=6.8e-17 N=5.64 Rs=0.016)
.model sbcmSW SW(Ron=0.001 Roff=5 Von=10 Voff=0)
.model cmSW SW(Ron=0.001 Roff=25 Von=5 Voff=0)
* Positive
* Negative
.model idealD D(Is=1e-14 N=0.1 Rs=0.001 )
.model Before_snapback D(Is=2.55e-16 N=10.5 Rs=100)
.ic v(snap_c)=0
*.ic v(snap_c_N)=0
.ends DFN1610_824032815
******
.subckt DFN1610_824045810 Anode Cathode
D4 N008 Cathode mainIV
F2 0 N013 V4 +1
R11 N013 0 1e100
V4 Positive N005 0
S2 N006 N005 SBCM_C 0 sbcmSW
V5 SBCM_C N013 5
C3 N013 0 1.3n
D5 N013 N018 idealD
D6 N017 N013 idealD
R12 N023 0 50
R13 N017 0 50
F3 0 N014 V6 +1
R14 N014 0 1e100
V6 N006 N007 0
S3 N008 N007 CM_C 0 cmSW
V7 CM_C N014 0.75
C4 N014 0 1n
D7 N014 N019 idealD
D8 P001 N014 idealD
R15 N024 0 50
R16 P001 0 50
V8 N018 N023 100
V9 N019 N024 100
R17 N013 0 1e6
R18 N014 0 1e6
D12 Cathode N012 mainIVneg
F5 0 N015 V13 -1
R29 N015 0 1e100
V13 Negative N009 0
S5 N010 N009 SBCM_C_N 0 sbcmSWneg
V14 SBCM_C_N N015 5
C7 N015 0 2.5n
D13 N015 N021 idealD
D14 N020 N015 idealD
R30 N025 0 50
R31 N020 0 50
F6 0 N016 V15 -1
R32 N016 0 1e100
V15 N010 N011 0
S6 N012 N011 CM_C_N 0 cmSWneg
V16 CM_C_N N016 0.75
C8 N016 0 10n
D15 N016 N022 idealD
D16 P002 N016 idealD
R33 N026 0 50
R34 P002 0 50
V17 N021 N025 100
V18 N022 N026 100
R35 N015 0 1e6
R36 N016 0 1e6
L1 Anode N001 0.59n
C9 N001 N002 240p
R37 N002 Cathode 0.0734
R38 N001 Cathode 1e7
D17 N001 Positive idealD
D19 Negative N001 idealD
D1 Cathode N012 mainIVneg1
.model D D
.model mainIV D(Is=3.4e-17 N=24.513 Rs=0.035 )
.model sbcmSW SW(Ron=0.001 Roff=40 Von=20 Voff=0)
.model cmSW SW(Ron=0.001 Roff=1 Von=1 Voff=0)
* Positive
* Negative
.model idealD D(Is=1e-14 N=0.1 Rs=0.001 )
.model Before_snapback D(Is=2.55e-16 N=8 Rs=200)
*.ic v(snap_c)=0
*.ic v(snap_c_N)=0
.model mainIVneg D(Is=3.4e-17 N=0.79 Rs=0.035 )
.model sbcmSWneg SW(Ron=0.001 Roff=3 Von=22 Voff=0)
.model cmSWneg SW(Ron=0.001 Roff=1 Von=3 Voff=0)
.model mainIVneg1 D(Is=3.4e-17 N=1.06 Rs=0.092 )
.ends DFN1610_824045810
******
.subckt DFN1610_824045812 Anode Cathode
D4 N008 Cathode mainIV
F2 0 N013 V4 +1
R11 N013 0 1e100
V4 Positive N005 0
S2 N006 N005 SBCM_C 0 sbcmSW
V5 SBCM_C N013 1.25
C3 N013 0 450p
D5 N013 N018 idealD
D6 N017 N013 idealD
R12 N023 0 50
R13 N017 0 50
F3 0 N014 V6 +1
R14 N014 0 1e100
V6 N006 N007 0
S3 N008 N007 CM_C 0 cmSW
V7 CM_C N014 0.75
C4 N014 0 1n
D7 N014 N019 idealD
D8 P001 N014 idealD
R15 N024 0 50
R16 P001 0 50
V8 N018 N023 100
V9 N019 N024 100
R17 N013 0 1e6
R18 N014 0 1e6
D12 Cathode N012 mainIVneg
F5 0 N015 V13 -1
R29 N015 0 1e100
V13 Negative N009 0
S5 N010 N009 SBCM_C_N 0 sbcmSWneg
V14 SBCM_C_N N015 1.25
C7 N015 0 1p
D13 N015 N021 idealD
D14 N020 N015 idealD
R30 N025 0 50
R31 N020 0 50
F6 0 N016 V15 -1
R32 N016 0 1e100
V15 N010 N011 0
S6 N012 N011 CM_C_N 0 cmSWneg
V16 CM_C_N N016 0.75
C8 N016 0 1n
D15 N016 N022 idealD
D16 P002 N016 idealD
R33 N026 0 50
R34 P002 0 50
V17 N021 N025 100
V18 N022 N026 100
R35 N015 0 1e6
R36 N016 0 1e6
L1 Anode N001 0.56n
C9 N001 N002 430p
R37 N002 Cathode 0.0686
R38 N001 Cathode 1e7
D17 N001 Positive idealD
D19 Negative N001 idealD
.model D D
.model mainIV D(Is=3.4e-17 N=14.45 Rs=0.021 )
.model sbcmSW SW(Ron=0.001 Roff=80 Von=5 Voff=0)
.model cmSW SW(Ron=0.001 Roff=1 Von=1 Voff=0)
* Positive
* Negative
.model idealD D(Is=1e-14 N=0.1 Rs=0.001 )
.model Before_snapback D(Is=2.55e-16 N=8 Rs=200)
*.ic v(snap_c)=0
*.ic v(snap_c_N)=0
.model mainIVneg D(Is=3.4e-17 N=0.81 Rs=0.021 )
.model sbcmSWneg SW(Ron=0.001 Roff=40 Von=1 Voff=0)
.model cmSWneg SW(Ron=0.001 Roff=1 Von=1 Voff=0)
.ends DFN1610_824045812
******
.subckt DFN1610_824045817 Anode Cathode
D4 N008 Cathode mainIV
F2 0 N013 V4 +1
R11 N013 0 1e100
V4 Positive N005 0
S2 N006 N005 SBCM_C 0 sbcmSW
V5 SBCM_C N013 0.025
C3 N013 0 1p
D5 N013 N018 idealD
D6 N017 N013 idealD
R12 N023 0 50
R13 N017 0 50
F3 0 N014 V6 +1
R14 N014 0 1e100
V6 N006 N007 0
S3 N008 N007 CM_C 0 cmSW
V7 CM_C N014 0.75
C4 N014 0 1n
D7 N014 N019 idealD
D8 P001 N014 idealD
R15 N024 0 50
R16 P001 0 50
V8 N018 N023 100
V9 N019 N024 100
R17 N013 0 1e6
R18 N014 0 1e6
D12 Cathode N012 mainIVneg
F5 0 N015 V13 -1
R29 N015 0 1e100
V13 Negative N009 0
S5 N010 N009 SBCM_C_N 0 sbcmSWneg
V14 SBCM_C_N N015 0.025
C7 N015 0 1p
D13 N015 N021 idealD
D14 N020 N015 idealD
R30 N025 0 50
R31 N020 0 50
F6 0 N016 V15 -1
R32 N016 0 1e100
V15 N010 N011 0
S6 N012 N011 CM_C_N 0 cmSWneg
V16 CM_C_N N016 0.75
C8 N016 0 7n
D15 N016 N022 idealD
D16 P002 N016 idealD
R33 N026 0 50
R34 P002 0 50
V17 N021 N025 100
V18 N022 N026 100
R35 N015 0 1e6
R36 N016 0 1e6
L1 Anode N001 0.6n
C9 N001 N002 850p
R37 N002 Cathode 0.06454
R38 N001 Cathode 1e7
D17 N001 Positive idealD
D19 Negative N001 idealD
.model D D
.model mainIV D(Is=3.4e-17 N=8.31 Rs=0.029 )
.model sbcmSW SW(Ron=0.001 Roff=1 Von=0.1 Voff=0)
.model cmSW SW(Ron=0.001 Roff=1 Von=1 Voff=0)
* Positive
* Negative
.model idealD D(Is=1e-14 N=0.1 Rs=0.001 )
.model Before_snapback D(Is=2.55e-16 N=8 Rs=200)
*.ic v(snap_c)=0
*.ic v(snap_c_N)=0
.model mainIVneg D(Is=3.4e-17 N=0.74 Rs=0.059 )
.model sbcmSWneg SW(Ron=0.001 Roff=40 Von=1 Voff=0)
.model cmSWneg SW(Ron=0.001 Roff=1 Von=5 Voff=0)
.ends DFN1610_824045817
******
.subckt DFN2020_824043810 Anode Cathode
D4 N008 Cathode mainIV
F2 0 N009 V4 +1
R11 N009 0 1e3
V4 Positive N005 0
S2 N006 N005 SBCM_C 0 sbcmSW
V5 SBCM_C N009 17.5
C3 N009 0 100p
D5 N009 N012 idealD
D6 N011 N009 idealD
R12 N014 0 50
R13 N011 0 50
F3 0 N010 V6 +1
R14 N010 0 1e3
V6 N006 N007 0
S3 N008 N007 CM_C 0 cmSW
V7 CM_C N010 0.75
C4 N010 0 1n
D7 N010 N013 idealD
D8 P001 N010 idealD
R15 N015 0 50
R16 P001 0 50
V8 N012 N014 100
V9 N013 N015 100
R17 N009 0 1e6
R18 N010 0 1e6
D12 Cathode Negative mainIVneg
L1 Anode N001 0.295n
C9 N001 N002 1000p
R37 N002 Cathode 0.037
R38 N001 Cathode 1e7
D17 N001 Positive idealD
D19 Negative N001 idealD
.model D D
.model mainIV D(Is=6.8e-17 N=12.4 Rs=0.01)
.model sbcmSW SW(Ron=0.001 Roff=90 Von=70 Voff=0)
.model cmSW SW(Ron=0.001 Roff=1 Von=1 Voff=0)
* Positive
* Negative
.model idealD D(Is=1e-14 N=0.1 Rs=0.001 )
*.ic v(snap_c)=0
*.ic v(snap_c_N)=0
.model mainIVneg D(Is=6.8e-17 N=0.5 Rs=0.0001)
.ends DFN2020_824043810
******
.subckt DFN2020_824043817 Anode Cathode
D4 Positive Cathode mainIV
D12 Cathode N008 mainIVneg
F5 0 N009 V13 -1
R29 N009 0 1e100
V13 Negative N005 0
S5 N006 N005 SBCM_C_N 0 sbcmSWneg
V14 SBCM_C_N N009 1.42857143
C7 N009 0 1p
D13 N009 N012 idealD
D14 N011 N009 idealD
R30 N014 0 50
R31 N011 0 50
F6 0 N010 V15 -1
R32 N010 0 1e100
V15 N006 N007 0
S6 N008 N007 CM_C_N 0 cmSWneg
V16 CM_C_N N010 0.75
C8 N010 0 1n
D15 N010 N013 idealD
D16 P001 N010 idealD
R33 N015 0 50
R34 P001 0 50
V17 N012 N014 100
V18 N013 N015 100
R35 N009 0 1e6
R36 N010 0 1e6
L1 Anode N001 0.4n
C9 N001 N002 1420p
R37 N002 Cathode 0.03787
R38 N001 Cathode 1e7
D17 N001 Positive idealD
D19 Negative N001 idealD
.model D D
.model mainIV D(Is=1e-16 N=8.8 Rs=0.013 )
* Positive
* Negative
.model idealD D(Is=1e-14 N=0.1 Rs=0.001 )
.model Before_snapback D(Is=1e-16 N=10 Rs=6)
*.ic v(snap_c)=0
*.ic v(snap_c_N)=0
.model mainIVneg D(Is=1e-16 N=0.78 Rs=0.016 )
.model sbcmSWneg SW(Ron=0.001 Roff=30 Von=10 Voff=0)
.model cmSWneg SW(Ron=0.001 Roff=1 Von=1 Voff=0)
.ends DFN2020_824043817
******
.subckt DFN1006_824055815 Anode Cathode
E1 N005 0 Positive Cathode 1
V1 Snap_A Snap_B 8.6
D1 0 Snap_B idealD
C1 snap_c 0 1p
R1 snap_c 0 1e6
D2 Test N007 idealD
V2 N007 N011 100
R2 N011 0 50
D3 N009 Test idealD
R3 N009 0 50
R4 Snap_C_LP snap_c 11
C2 Snap_C_LP 0 24p
S1 V3 Positive Snap_C_LP 0 snapback1SW
F1 0 Test V3 -1
R5 0 Test 1e100
R6 Cathode Positive 1e100
R7 Snap_A N005 1K
D4 N020 Cathode mainIV
R8 0 Snap_B 1e100
R9 0 snap_c 1e100
V3 B V3 0
R10 Test snap_c 1000
G1 0 snap_c 0 Snap_B -1
F2 0 N023 V4 +1
R11 N023 0 1e3
V4 B N017 0
S2 N018 N017 SBCM_C 0 sbcmSW
V5 SBCM_C N023 5
C3 N023 0 200p
D5 N023 N029 idealD
D6 N026 N023 idealD
R12 N033 0 50
R13 N026 0 50
F3 0 N024 V6 +1
R14 N024 0 1e3
V6 N018 N019 0
S3 N020 N019 CM_C 0 cmSW
V7 CM_C N024 1.375
C4 N024 0 200n
D7 N024 N030 idealD
D8 P001 N024 idealD
R15 N034 0 50
R16 P001 0 50
V8 N029 N033 100
V9 N030 N034 100
R17 N023 0 1e6
R18 N024 0 1e6
D12 Cathode N016 mainIV
F5 0 N021 V13 -1
R29 N021 0 1e3
V13 B_N N013 0
S5 N014 N013 SBCM_C_N 0 sbcmSW
V14 SBCM_C_N N021 5
C7 N021 0 200p
D13 N021 N027 idealD
D14 N025 N021 idealD
R30 N031 0 50
R31 N025 0 50
F6 0 N022 V15 -1
R32 N022 0 1e3
V15 N014 N015 0
S6 N016 N015 CM_C_N 0 cmSW
V16 CM_C_N N022 1.375
C8 N022 0 200n
D15 N022 N028 idealD
D16 P002 N022 idealD
R33 N032 0 50
R34 P002 0 50
V17 N027 N031 100
V18 N028 N032 100
R35 N021 0 1e6
R36 N022 0 1e6
L1 Anode N001 0.68n
C9 N001 N002 35p
R37 N002 Cathode 2.24
R38 N001 Cathode 1e7
D17 N001 Positive idealD
D18 Positive Cathode Before_snapback
D19 Negative N001 idealD
D20 Cathode Negative Before_snapback
E2 N006 0 Negative Cathode -1
V10 Snap_A_N Snap_B_N 8.6
D9 0 Snap_B_N idealD
C5 snap_c_N 0 1p
R19 snap_c_N 0 1e6
D10 Test_N N008 idealD
V11 N008 N012 100
R20 N012 0 50
D11 N010 Test_N idealD
R21 N010 0 50
R22 Snap_C_LP_N snap_c_N 11
C6 Snap_C_LP_N 0 24p
S4 V3 Negative Snap_C_LP_N 0 snapback1SW
F4 0 Test_N V12 +1
R23 0 Test_N 1e100
R24 Cathode Negative 1e100
R25 Snap_A_N N006 1K
R26 0 Snap_B_N 1e100
R27 0 snap_c_N 1e100
V12 B_N V3 0
R28 Test_N snap_c_N 800
G2 0 snap_c_N 0 Snap_B_N -1
.model D D
.model snapback1SW SW(Ron=0.001 Roff=1e6 Von=10 Voff=9.8)
.model mainIV D(Is=6.8e-17 N=5.5 Rs=0.045)
.model sbcmSW SW(Ron=0.001 Roff=20 Von=20 Voff=0)
.model cmSW SW(Ron=0.001 Roff=5 Von=3.5 Voff=0)
* Positive
* Negative
.model idealD D(Is=1e-14 N=0.1 Rs=0.001 )
.model Before_snapback D(Is=2.55e-16 N=20 Rs=1000)
.ic v(snap_c)=0
.ic v(snap_c_N)=0
.ends DFN1006_824055815
******
.subckt SOD123_8240401330 Anode Cathode
D4 N008 Cathode mainIV
F2 0 N013 V4 +1
R11 N013 0 1e100
V4 Positive N005 0
S2 N006 N005 SBCM_C 0 sbcmSW
V5 SBCM_C N013 5
C3 N013 0 600p
D5 N013 N018 idealD
D6 N017 N013 idealD
R12 N023 0 50
R13 N017 0 50
F3 0 N014 V6 +1
R14 N014 0 1e100
V6 N006 N007 0
S3 N008 N007 CM_C 0 cmSW
V7 CM_C N014 0.75
C4 N014 0 1n
D7 N014 N019 idealD
D8 P001 N014 idealD
R15 N024 0 50
R16 P001 0 50
V8 N018 N023 100
V9 N019 N024 100
R17 N013 0 1e6
R18 N014 0 1e6
D12 Cathode N012 mainIVneg
F5 0 N015 V13 -1
R29 N015 0 1e100
V13 Negative N009 0
S5 N010 N009 SBCM_C_N 0 sbcmSWneg
V14 SBCM_C_N N015 5
C7 N015 0 10p
D13 N015 N021 idealD
D14 N020 N015 idealD
R30 N025 0 50
R31 N020 0 50
F6 0 N016 V15 -1
R32 N016 0 1e100
V15 N010 N011 0
S6 N012 N011 CM_C_N 0 cmSWneg
V16 CM_C_N N016 0.75
C8 N016 0 1n
D15 N016 N022 idealD
D16 P002 N016 idealD
R33 N026 0 50
R34 P002 0 50
V17 N021 N025 100
V18 N022 N026 100
R35 N015 0 1e6
R36 N016 0 1e6
L1 Anode N001 1.93n
C9 N001 N002 240p
R37 N002 Cathode 0.3397
R38 N001 Cathode 1e7
D17 N001 Positive idealD
D19 Negative N001 idealD
D1 Cathode N012 mainIVneg1
D2 N008 Cathode mainIV1
.model D D
.model mainIV D(Is=3.4e-17 N=35 Rs=0.1 )
.model sbcmSW SW(Ron=0.001 Roff=20 Von=20 Voff=0)
.model cmSW SW(Ron=0.001 Roff=1 Von=1 Voff=0)
* Positive
* Negative
.model idealD D(Is=1e-14 N=0.1 Rs=0.001 )
.model Before_snapback D(Is=2.55e-16 N=8 Rs=200)
*.ic v(snap_c)=0
*.ic v(snap_c_N)=0
.model mainIVneg D(Is=3.4e-17 N=0.76 Rs=0.064 )
.model sbcmSWneg SW(Ron=0.001 Roff=1 Von=0.1 Voff=0)
.model cmSWneg SW(Ron=0.001 Roff=1 Von=1 Voff=0)
.model mainIVneg1 D(Is=3.4e-17 N=2 Rs=0.313 )
.model mainIV1 D(Is=3.4e-17 N=39.5 Rs=0.001 )
.ends SOD123_8240401330
******
.subckt 82402374_pin Anode Cathode
E1 N011 0 Positive Cathode 1
V1 Snap_A Snap_B 8.1
D1 0 Snap_B idealD
C1 snap_c 0 100p
R1 snap_c 0 1e6
D2 Test N013 idealD
V2 N013 N017 100
R2 N017 0 50
D3 N016 Test idealD
R3 N016 0 50
R4 Snap_C_LP snap_c 11
C2 Snap_C_LP 0 24p
S1 V3 Positive Snap_C_LP 0 snapback1SW
F1 0 Test V3 -1
R5 0 Test 1e100
R6 Cathode Positive 1e100
R7 Snap_A N011 1K
D4 N023 Cathode mainIV
R8 0 Snap_B 1e100
R9 0 snap_c 1e100
V3 B V3 0
R10 Test snap_c 1000
G1 0 snap_c 0 Snap_B -1
F2 0 N024 V4 +1
R11 N024 0 1e100
V4 B N020 0
S2 N021 N020 SBCM_C 0 sbcmSW
V5 SBCM_C N024 15
C3 N024 0 400p
D5 N024 N027 idealD
D6 N026 N024 idealD
R12 N029 0 50
R13 N026 0 50
F3 0 N025 V6 +1
R14 N025 0 1e100
V6 N021 N022 0
S3 N023 N022 CM_C 0 cmSW
V7 CM_C N025 1.525
C4 N025 0 100n
D7 N025 N028 idealD
D8 P001 N025 idealD
R15 N030 0 50
R16 P001 0 50
V8 N027 N029 100
V9 N028 N030 100
R17 N024 0 1e6
R18 N025 0 1e6
D12 Cathode N008 mainIVneg
F5 0 N009 V13 -1
R29 N009 0 1e100
V13 Negative N005 0
S5 N006 N005 SBCM_C_N 0 sbcmSW
V14 SBCM_C_N N009 15
C7 N009 0 600p
D13 N009 N014 idealD
D14 N012 N009 idealD
R30 N018 0 50
R31 N012 0 50
F6 0 N010 V15 -1
R32 N010 0 1e100
V15 N006 N007 0
S6 N008 N007 CM_C_N 0 cmSW
V16 CM_C_N N010 1.525
C8 N010 0 100n
D15 N010 N015 idealD
D16 P002 N010 idealD
R33 N019 0 50
R34 P002 0 50
V17 N014 N018 100
V18 N015 N019 100
R35 N009 0 1e6
R36 N010 0 1e6
L1 Anode N001 1n
C9 N001 N002 12.8p
R37 N002 Cathode 5.08
R38 N001 Cathode 1e7
D17 N001 Positive idealD
D18 Positive Cathode Before_snapback
D19 Negative N001 idealD
D20 Cathode Negative Before_snapback
.model D D
.model snapback1SW SW(Ron=0.001 Roff=1e6 Von=25 Voff=24.8)
.model mainIV D(Is=1e-17 N=4.8 Rs=0.24 )
.model sbcmSW SW(Ron=0.001 Roff=40 Von=60 Voff=0)
.model cmSW SW(Ron=0.001 Roff=16.6 Von=4.1 Voff=0)
* Positive
* Negative
.model idealD D(Is=1e-14 N=0.1 Rs=0.001 )
.model Before_snapback D(Is=1e-16 N=10 Rs=4 )
.ic v(snap_c)=0
*.ic v(snap_c_N)=0
.model mainIVneg D(Is=1e-17 N=1.1 Rs=0.21 )
.ends 82402374_pin
******
.subckt 82402375_pin Anode Cathode
E1 N005 0 Positive Cathode 1
V1 Snap_A Snap_B 7.7
D1 0 Snap_B idealD
C1 snap_c 0 300p
R1 snap_c 0 1e6
D2 Test N006 idealD
V2 N006 N008 100
R2 N008 0 50
D3 N007 Test idealD
R3 N007 0 50
R4 Snap_C_LP snap_c 11
C2 Snap_C_LP 0 24p
S1 V3 Positive Snap_C_LP 0 snapback1SW
F1 0 Test V3 -1
R5 0 Test 1e100
R6 Cathode Positive 1e100
R7 Snap_A N005 1K
D4 N016 Cathode mainIV
R8 0 Snap_B 1e100
R9 0 snap_c 1e100
V3 B V3 0
R10 Test snap_c 1000
G1 0 snap_c 0 Snap_B -1
F2 0 N019 V4 +1
R11 N019 0 1e100
V4 B N013 0
S2 N014 N013 SBCM_C 0 sbcmSW
V5 SBCM_C N019 15
C3 N019 0 300p
D5 N019 N025 idealD
D6 N022 N019 idealD
R12 N029 0 50
R13 N022 0 50
F3 0 N020 V6 +1
R14 N020 0 1e100
V6 N014 N015 0
S3 N016 N015 CM_C 0 cmSW
V7 CM_C N020 1.75
C4 N020 0 50n
D7 N020 N026 idealD
D8 P001 N020 idealD
R15 N030 0 50
R16 P001 0 50
V8 N025 N029 100
V9 N026 N030 100
R17 N019 0 1e6
R18 N020 0 1e6
D12 Cathode N012 mainIVneg
F5 0 N017 V13 -1
R29 N017 0 1e100
V13 Negative N009 0
S5 N010 N009 SBCM_C_N 0 sbcmSW
V14 SBCM_C_N N017 8.5713
C7 N017 0 300p
D13 N017 N023 idealD
D14 N021 N017 idealD
R30 N027 0 50
R31 N021 0 50
F6 0 N018 V15 -1
R32 N018 0 1e100
V15 N010 N011 0
S6 N012 N011 CM_C_N 0 cmSWneg
V16 CM_C_N N018 1.75
C8 N018 0 100n
D15 N018 N024 idealD
D16 P002 N018 idealD
R33 N028 0 50
R34 P002 0 50
V17 N023 N027 100
V18 N024 N028 100
R35 N017 0 1e6
R36 N018 0 1e6
L1 Anode N001 0.45n
C9 N001 N002 12.5p
R37 N002 Cathode 6
R38 N001 Cathode 1e7
D17 N001 Positive idealD
D18 Positive Cathode Before_snapback
D19 Negative N001 idealD
D20 Cathode Negative Before_snapback
.model D D
.model snapback1SW SW(Ron=0.001 Roff=1e6 Von=20 Voff=19.8)
.model mainIV D(Is=1e-16 N=5.05 Rs=0.24 )
.model sbcmSW SW(Ron=0.001 Roff=40 Von=60 Voff=0)
.model cmSW SW(Ron=0.001 Roff=16.6 Von=5 Voff=0)
* Positive
* Negative
.model idealD D(Is=1e-14 N=0.1 Rs=0.001 )
.model Before_snapback D(Is=1e-16 N=10 Rs=4 )
.ic v(snap_c)=0
*.ic v(snap_c_N)=0
.model mainIVneg D(Is=1e-16 N=1.2 Rs=0.24 )
.model cmSWneg SW(Ron=0.001 Roff=20 Von=5 Voff=0)
.ends 82402375_pin
******
.subckt 824021_pin Anode Cathode
E1 N005 0 Positive Cathode 1
V1 Snap_A Snap_B 8.025
D1 0 Snap_B idealD
C1 snap_c 0 10p
R1 snap_c 0 1e6
D2 Test N006 idealD
V2 N006 N008 100
R2 N008 0 50
D3 N007 Test idealD
R3 N007 0 50
R4 Snap_C_LP snap_c 11
C2 Snap_C_LP 0 30p
S1 V3 Positive Snap_C_LP 0 snapback1SW
F1 0 Test V3 -1
R5 0 Test 1e100
R6 Cathode Positive 1e100
R7 Snap_A N005 1K
D4 N016 Cathode mainIV
R8 0 Snap_B 1e100
R9 0 snap_c 1e100
V3 B V3 0
R10 Test snap_c 1000
G1 0 snap_c 0 Snap_B -1
F2 0 N019 V4 +1
R11 N019 0 1e100
V4 B N013 0
S2 N014 N013 SBCM_C 0 sbcmSW
V5 SBCM_C N019 12.5
C3 N019 0 600p
D5 N019 N025 idealD
D6 N022 N019 idealD
R12 N029 0 50
R13 N022 0 50
F3 0 N020 V6 +1
R14 N020 0 1e100
V6 N014 N015 0
S3 N016 N015 CM_C 0 cmSW
V7 CM_C N020 5
C4 N020 0 84n
D7 N020 N026 idealD
D8 P001 N020 idealD
R15 N030 0 50
R16 P001 0 50
V8 N025 N029 100
V9 N026 N030 100
R17 N019 0 1e6
R18 N020 0 1e6
D12 Cathode N012 mainIVneg
F5 0 N017 V13 -1
R29 N017 0 1e100
V13 Negative N009 0
S5 N010 N009 SBCM_C_N 0 sbcmSWneg
V14 SBCM_C_N N017 3
C7 N017 0 1000p
D13 N017 N023 idealD
D14 N021 N017 idealD
R30 N027 0 50
R31 N021 0 50
F6 0 N018 V15 -1
R32 N018 0 1e100
V15 N010 N011 0
S6 N012 N011 CM_C_N 0 cmSWneg
V16 CM_C_N N018 1.75
C8 N018 0 150n
D15 N018 N024 idealD
D16 P002 N018 idealD
R33 N028 0 50
R34 P002 0 50
V17 N023 N027 100
V18 N024 N028 100
R35 N017 0 1e6
R36 N018 0 1e6
L1 Anode N001 0.48n
C9 N001 N002 49.3p
R37 N002 Cathode 4.13
R38 N001 Cathode 1e7
D17 N001 Positive idealD
D18 Positive Cathode Before_snapback
D19 Negative N001 idealD
D20 Cathode Negative Before_snapback
D9 Cathode N012 mainIVneg1
D10 Cathode N012 mainIVneg2
.model D D
.model snapback1SW SW(Ron=0.01 Roff=1e6 Von=13.3 Voff=13.1)
.model mainIV D(Is=1e-23 N=4.1 Rs=0.17 )
.model sbcmSW SW(Ron=0.001 Roff=80 Von=50 Voff=0)
.model cmSW SW(Ron=0.001 Roff=4 Von=18 Voff=0)
* Positive
* Negative
.model idealD D(Is=1e-14 N=0.1 Rs=0.001 )
.model Before_snapback D(Is=7e-16 N=9.24 Rs=100)
.ic v(snap_c)=0
*.ic v(snap_c_N)=0
.model mainIVneg D(Is=1e-23 N=0.6 Rs=0.275)
.model sbcmSWneg SW(Ron=0.001 Roff=10 Von=30 Voff=0)
.model cmSWneg SW(Ron=0.001 Roff=30 Von=5 Voff=0)
.model mainIVneg1 D(Is=1e-23 N=1 Rs=1)
.model mainIVneg2 D(Is=1e-23 N=2.6 Rs=1.4)
.ends 824021_pin
******
.subckt 824022_pin Anode Cathode
E1 N007 0 Positive Cathode 1
V1 Snap_A Snap_B 9.7
D1 0 Snap_B idealD
C1 snap_c 0 1p
R1 snap_c 0 1e6
D2 N005 N009 idealD
V2 N009 N013 100
R2 N013 0 50
D3 N011 N005 idealD
R3 N011 0 50
R4 Snap_C_LP snap_c 11
C2 Snap_C_LP 0 30p
S1 V3 Positive Snap_C_LP 0 snapback1SW
F1 0 N005 V3 -1
R5 0 N005 1e100
R6 Cathode Positive 1e100
R7 Snap_A N007 1K
D4 N022 Cathode mainIV
R8 0 Snap_B 1e100
R9 0 snap_c 1e100
V3 B V3 0
R10 N005 snap_c 1000
G1 0 snap_c 0 Snap_B -1
F2 0 N025 V4 +1
R11 N025 0 1e100
V4 B N019 0
S2 N020 N019 SBCM_C 0 sbcmSW
V5 SBCM_C N025 2.5
C3 N025 0 600p
D5 N025 N031 idealD
D6 N028 N025 idealD
R12 N035 0 50
R13 N028 0 50
F3 0 N026 V6 +1
R14 N026 0 1e100
V6 N020 N021 0
S3 N022 N021 CM_C 0 cmSW
V7 CM_C N026 1.75
C4 N026 0 150n
D7 N026 N032 idealD
D8 P001 N026 idealD
R15 N036 0 50
R16 P001 0 50
V8 N031 N035 100
V9 N032 N036 100
R17 N025 0 1e6
R18 N026 0 1e6
D12 Cathode N018 mainIV
F5 0 N023 V13 -1
R29 N023 0 1e100
V13 B_N N015 0
S5 N016 N015 SBCM_C_N 0 sbcmSW
V14 SBCM_C_N N023 2.5
C7 N023 0 600p
D13 N023 N029 idealD
D14 N027 N023 idealD
R30 N033 0 50
R31 N027 0 50
F6 0 N024 V15 -1
R32 N024 0 1e100
V15 N016 N017 0
S6 N018 N017 CM_C_N 0 cmSW
V16 CM_C_N N024 1.75
C8 N024 0 150n
D15 N024 N030 idealD
D16 P002 N024 idealD
R33 N034 0 50
R34 P002 0 50
V17 N029 N033 100
V18 N030 N034 100
R35 N023 0 1e6
R36 N024 0 1e6
L1 Anode N001 2.1n
C9 N001 N002 13.5p
R37 N002 Cathode 2.54
R38 N001 Cathode 1e7
D17 N001 Positive idealD
D18 Positive Cathode Before_snapback
D19 Negative N001 idealD
D20 Cathode Negative Before_snapback
E2 N008 0 Negative Cathode -1
V10 Snap_A_N Snap_B_N 9.7
D9 0 Snap_B_N idealD
C5 snap_c_N 0 1p
R19 snap_c_N 0 1e6
D10 N006 N010 idealD
V11 N010 N014 100
R20 N014 0 50
D11 N012 N006 idealD
R21 N012 0 50
R22 Snap_C_LP_N snap_c_N 11
C6 Snap_C_LP_N 0 30p
S4 V3_N Negative Snap_C_LP_N 0 snapback1SW
F4 0 N006 V12 +1
R23 0 N006 1e100
R24 Cathode Negative 1e100
R25 Snap_A_N N008 1K
R26 0 Snap_B_N 1e100
R27 0 snap_c_N 1e100
V12 B_N V3_N 0
R28 N006 snap_c_N 1000
G2 0 snap_c_N 0 Snap_B_N -1
.model D D
.model snapback1SW SW(Ron=0.01 Roff=1e6 Von=13.3 Voff=13.1)
.model mainIV D(Is=1e-23 N=4.8 Rs=0.21 )
.model sbcmSW SW(Ron=0.001 Roff=5 Von=10 Voff=0)
.model cmSW SW(Ron=0.001 Roff=8 Von=5 Voff=0)
* Positive
* Negative
.model idealD D(Is=1e-14 N=0.1 Rs=0.001 )
.model Before_snapback D(Is=7e-16 N=9.24 Rs=300)
.ic v(snap_c)=0
.ic v(snap_c_N)=0
.ends 824022_pin
******
.subckt 82402304_pin Anode Cathode
E1 N005 0 Positive Cathode 1
V1 Snap_A Snap_B 7.7
D1 0 Snap_B idealD
C1 snap_c 0 10p
R1 snap_c 0 1e6
D2 Test N006 idealD
V2 N006 N008 100
R2 N008 0 50
D3 N007 Test idealD
R3 N007 0 50
R4 Snap_C_LP snap_c 11
C2 Snap_C_LP 0 24p
S1 V3 Positive Snap_C_LP 0 snapback1SW
F1 0 Test V3 -1
R5 0 Test 1e100
R6 Cathode Positive 1e100
R7 Snap_A N005 1K
D4 N016 Cathode mainIV
R8 0 Snap_B 1e100
R9 0 snap_c 1e100
V3 B V3 0
R10 Test snap_c 1000
G1 0 snap_c 0 Snap_B -1
F2 0 N019 V4 +1
R11 N019 0 1e100
V4 B N013 0
S2 N014 N013 SBCM_C 0 sbcmSW
V5 SBCM_C N019 12.5
C3 N019 0 700p
D5 N019 N025 idealD
D6 N022 N019 idealD
R12 N029 0 50
R13 N022 0 50
F3 0 N020 V6 +1
R14 N020 0 1e100
V6 N014 N015 0
S3 N016 N015 CM_C 0 cmSW