**************************************************
* Manufacturer:           Würth Elektronik
* Kinds:                  TVS Diode - High Speed Series
* Matchcode:              WE-TVS
* Library Type:           LTspice
* Version:                rev25a
* Created/modified by:    Ella     
* Date and Time:          2025-02-26
* Team:                   eiSos EDA Service  
* Contact:                libraries@we-online.com
* The models were generated by Würth Elektronik in cooperation with Graz University of Technology - Institute of Electronics
**************************************************
* Copyright(C) 2025 Würth Elektronik eiSos GmbH & Co. KG
* All Rights Reserved.
**************************************************
* Disclaimer: While Würth Elektronik eiSos has made every reasonable effort to ensure the accuracy
* of the simulation models provided, Würth Elektronik eiSos does not guarantee the exemption of error on
* the simulation models, nor does Würth Elektronik eiSos guarantee that the simulation model is current.
* Würth Elektronik eiSos reserves the right to make any adjustments at any time without notice.
* Würth Elektronik eiSos expressly disclaims all implied warranties regarding this simulation model.
**************************************************
.subckt SC70_82400274 IO1 IO2 IO3 IO4 VDD GND
XU1 IO1 GND 82400274_pin
XU2 IO2 GND 82400274_pin
XU3 IO3 GND 82400274_pin
XU4 IO4 GND 82400274_pin
XU5 VDD GND 82400274_vdd
C1 IO3 IO4 0.1p
C2 IO1 IO2 0.1p
.ends SC70_82400274
******
.subckt SOT23_824011 IO1 IO2 VDD GND
XU1 IO1 GND 824011_pin
XU2 IO2 GND 824011_pin
XU3 VDD GND 824011_vdd
C1 IO2 IO1 0.1p
.ends SOT23_824011
******
.subckt SOT23_824001 IO1 IO2 IO3 IO4 VDD GND
XU1 IO1 GND 824001_pin
XU2 IO2 GND 824001_pin
XU3 IO3 GND 824001_pin
XU4 IO4 GND 824001_pin
XU5 VDD GND 824001_vdd
C1 IO2 IO1 0.1p
C2 IO3 IO2 0.1p
C3 IO4 IO3 0.1p
C4 IO3 IO1 0.1p
C5 IO4 IO1 0.1p
C6 IO4 IO2 0.1p
.ends SOT23_824001
******
.subckt SOT23_824015 IO1 IO2 IO3 IO4 VDD GND
XU1 IO1 GND 824015_pin
XU2 IO2 GND 824015_pin
XU3 IO3 GND 824015_pin
XU4 IO4 GND 824015_pin
XU5 VDD GND 824015_vdd
C1 IO2 IO1 0.1p
C2 IO3 IO2 0.1p
C3 IO4 IO3 0.1p
C4 IO3 IO1 0.1p
C5 IO4 IO1 0.1p
C6 IO4 IO1 0.1p
.ends SOT23_824015
******
.subckt SOT143_8240116 VDD IO1 IO2 GND
XU1 IO1 GND 8240116_pin
XU2 IO2 GND 8240116_pin
XU3 VDD GND 8240116_vdd
C1 IO1 IO2 0.1p
.ends SOT143_8240116
******
.subckt SOT143_8240136 IO1 IO2 VDD GND
XU1 IO2 GND 8240136_pin
XU2 IO1 GND 8240136_pin
XU3 VDD GND 8240136_vdd
C1 IO1 IO2 0.4p
.ends SOT143_8240136
******
.subckt SOT563_82400152 VDD IO1 IO2 GND
XU1 VDD GND 82400152_vdd
XU2 IO1 GND 82400152_pin
XU3 IO2 GND 82400152_pin
C1 IO2 IO1 0.4p
.ends SOT563_82400152
******
.subckt SOT23_824015043 IO1 IO2 IO3 IO4 VDD GND
C1 IO2 IO1 0.1p
C2 IO3 IO2 0.1p
C3 IO4 IO3 0.1p
C4 IO3 IO1 0.1p
C5 IO4 IO1 0.1p
C6 IO4 IO1 0.1p
XU1 IO1 GND 824015043_pin
XU2 IO2 GND 824015043_pin
XU3 IO3 GND 824015043_pin
XU4 IO4 GND 824015043_pin
XU5 VDD GND 824015043_vdd
.ends SOT23_824015043
******
.subckt SOT23_82400102 IO1 IO2 VDD GND
XU1 IO1 GND 82400102_pin
XU2 IO2 GND 82400102_pin
XU3 VDD GND 82400102_vdd
C1 IO2 IO1 0.4p
.ends SOT23_82400102
******
.subckt SOT143_8240026 IO1 IO2 VDD GND
C1 IO2 IO1 0.2p
XU1 IO1 GND 8240026_pin
XU2 IO2 GND 8240026_pin
XU3 VDD GND 8240026_vdd
.ends SOT143_8240026
**************************************************
.subckt 82400274_pin Anode Cathode
E1 N011 0 Positive Cathode 1
V1 Snap_A Snap_B 8.7
D1 0 Snap_B idealD
C1 snap_c 0 200p
R1 snap_c 0 1e6
D2 Test N015 idealD
V2 N015 N017 100
R2 N017 0 50
D3 N016 Test idealD
R3 N016 0 50
R4 Snap_C_LP snap_c 11
C2 Snap_C_LP 0 24p
S1 V3 Positive Snap_C_LP 0 snapback1SW
F1 0 Test V3 -1
R5 0 Test 1e100
R6 Cathode Positive 1e100
R7 Snap_A N011 1K
D4 N023 Cathode mainIV
R8 0 Snap_B 1e100
R9 0 snap_c 1e100
V3 B V3 0
R10 Test snap_c 1000
G1 0 snap_c 0 Snap_B -1
F2 0 N024 V4 +1
R11 N024 0 1e100
V4 B N020 0
S2 N021 N020 SBCM_C 0 sbcmSW
V5 SBCM_C N024 3.25
C3 N024 0 600p
D5 N024 N027 idealD
D6 N026 N024 idealD
R12 N029 0 50
R13 N026 0 50
F3 0 N025 V6 +1
R14 N025 0 1e100
V6 N021 N022 0
S3 N023 N022 CM_C 0 cmSW
V7 CM_C N025 0.75
C4 N025 0 1n
D7 N025 N028 idealD
D8 P001 N025 idealD
R15 N030 0 50
R16 P001 0 50
V8 N027 N029 100
V9 N028 N030 100
R17 N024 0 1e6
R18 N025 0 1e6
D12 Cathode N008 mainIVneg
F5 0 N009 V13 -1
R29 N009 0 1e100
V13 Negative N005 0
S5 N006 N005 SBCM_C_N 0 sbcmSW
V14 SBCM_C_N N009 3.25
C7 N009 0 10p
D13 N009 N013 idealD
D14 N012 N009 idealD
R30 N018 0 50
R31 N012 0 50
F6 0 N010 V15 -1
R32 N010 0 1e100
V15 N006 N007 0
S6 N008 N007 CM_C_N 0 cmSW
V16 CM_C_N N010 0.75
C8 N010 0 10n
D15 N010 N014 idealD
D16 P002 N010 idealD
R33 N019 0 50
R34 P002 0 50
V17 N013 N018 100
V18 N014 N019 100
R35 N009 0 1e6
R36 N010 0 1e6
L1 Anode N001 1.9n
C9 N001 N002 1.48p
R37 N002 Cathode 3.84
R38 N001 Cathode 1e7
D17 N001 Positive idealD
D18 Positive Cathode Before_snapback
D19 Negative N001 idealD
D20 Cathode Negative Before_snapback
D9 Cathode N008 mainIVneg1
.model D D
.model snapback1SW SW(Ron=0.001 Roff=1e6 Von=1.5 Voff=1.3)
.model mainIV D(Is=1e-16 N=6.6 Rs=0.28 )
.model sbcmSW SW(Ron=0.001 Roff=10 Von=13 Voff=0)
.model cmSW SW(Ron=0.001 Roff=1 Von=1 Voff=0)
* Positive
* Negative
.model idealD D(Is=1e-14 N=0.1 Rs=0.001 )
.model Before_snapback D(Is=1e-16 N=10 Rs=35 )
.ic v(snap_c)=0
*.ic v(snap_c_N)=0
.model mainIVneg D(Is=1e-16 N=0.97 Rs=0.47 )
.model mainIVneg1 D(Is=1e-16 N=1.2 Rs=0.54 )
.ends 82400274_pin
******
.subckt 82400274_vdd Anode Cathode
E1 N011 0 Positive Cathode 1
V1 Snap_A Snap_B 7.8
D1 0 Snap_B idealD
C1 snap_c 0 100p
R1 snap_c 0 1e6
D2 Test N013 idealD
V2 N013 N017 100
R2 N017 0 50
D3 N016 Test idealD
R3 N016 0 50
R4 Snap_C_LP snap_c 11
C2 Snap_C_LP 0 24p
S1 V3 Positive Snap_C_LP 0 snapback1SW
F1 0 Test V3 -1
R5 0 Test 1e100
R6 Cathode Positive 1e100
R7 Snap_A N011 1K
D4 N023 Cathode mainIV
R8 0 Snap_B 1e100
R9 0 snap_c 1e100
V3 B V3 0
R10 Test snap_c 1000
G1 0 snap_c 0 Snap_B -1
F2 0 N024 V4 +1
R11 N024 0 1e100
V4 B N020 0
S2 N021 N020 SBCM_C 0 sbcmSW
V5 SBCM_C N024 2.5
C3 N024 0 100p
D5 N024 N027 idealD
D6 N026 N024 idealD
R12 N029 0 50
R13 N026 0 50
F3 0 N025 V6 +1
R14 N025 0 1e100
V6 N021 N022 0
S3 N023 N022 CM_C 0 cmSW
V7 CM_C N025 2
C4 N025 0 60n
D7 N025 N028 idealD
D8 P001 N025 idealD
R15 N030 0 50
R16 P001 0 50
V8 N027 N029 100
V9 N028 N030 100
R17 N024 0 1e6
R18 N025 0 1e6
D12 Cathode N008 mainIVneg
F5 0 N009 V13 -1
R29 N009 0 1e100
V13 Negative N005 0
S5 N006 N005 SBCM_C_N 0 sbcmSW
V14 SBCM_C_N N009 2.5
C7 N009 0 5500p
D13 N009 N014 idealD
D14 N012 N009 idealD
R30 N018 0 50
R31 N012 0 50
F6 0 N010 V15 -1
R32 N010 0 1e100
V15 N006 N007 0
S6 N008 N007 CM_C_N 0 cmSW
V16 CM_C_N N010 2
C8 N010 0 150n
D15 N010 N015 idealD
D16 P002 N010 idealD
R33 N019 0 50
R34 P002 0 50
V17 N014 N018 100
V18 N015 N019 100
R35 N009 0 1e6
R36 N010 0 1e6
L1 Anode N001 1.4n
C9 N001 N002 21p
R37 N002 Cathode 3.3
R38 N001 Cathode 1e7
D17 N001 Positive idealD
D18 Positive Cathode Before_snapback
D19 Negative N001 idealD
D20 Cathode Negative Before_snapback
D9 Cathode N008 mainIVneg1
D10 Cathode N008 mainIVneg2
D11 Cathode N008 mainIVneg3
.model D D
.model snapback1SW SW(Ron=0.001 Roff=1e6 Von=5 Voff=4.9)
.model mainIV D(Is=6.8e-17 N=5.45 Rs=0.16 )
.model sbcmSW SW(Ron=0.001 Roff=41 Von=10 Voff=0)
.model cmSW SW(Ron=0.001 Roff=8 Von=6 Voff=0)
* Positive
* Negative
.model idealD D(Is=1e-14 N=0.1 Rs=0.001 )
.model Before_snapback D(Is=2.55e-16 N=5 Rs=2000 )
.ic v(snap_c)=0
*.ic v(snap_c_N)=0
.model mainIVneg D(Is=1e-16 N=0.9 Rs=0.36 )
.model mainIVneg1 D(Is=1e-16 N=1.2 Rs=0.47 )
.model mainIVneg2 D(Is=1e-16 N=2.8 Rs= 0.79)
.model mainIVneg3 D(Is=1e-16 N=5.5 Rs=1.3 )
.ends 82400274_vdd
******
.subckt 824011_pin Anode Cathode
E1 N005 0 Positive Cathode 1
V1 Snap_A Snap_B 8.8
D1 0 Snap_B idealD
C1 snap_c 0 1p
R1 snap_c 0 1e6
D2 Test N006 idealD
V2 N006 N008 100
R2 N008 0 50
D3 N007 Test idealD
R3 N007 0 50
R4 Snap_C_LP snap_c 11
C2 Snap_C_LP 0 24p
S1 V3 Positive Snap_C_LP 0 snapback1SW
F1 0 Test V3 -1
R5 0 Test 1e100
R6 Cathode Positive 1e100
R7 Snap_A N005 1K
D4 N012 Cathode mainIV
R8 0 Snap_B 1e100
R9 0 snap_c 1e100
V3 B V3 0
R10 Test snap_c 1000
G1 0 snap_c 0 Snap_B -1
F2 0 N013 V4 +1
R11 N013 0 1e100
V4 B N009 0
S2 N010 N009 SBCM_C 0 sbcmSW
V5 SBCM_C N013 0.025
C3 N013 0 100p
D5 N013 N016 idealD
D6 N015 N013 idealD
R12 N018 0 50
R13 N015 0 50
F3 0 N014 V6 +1
R14 N014 0 1e100
V6 N010 N011 0
S3 N012 N011 CM_C 0 cmSW
V7 CM_C N014 1.65
C4 N014 0 50n
D7 N014 N017 idealD
D8 P001 N014 idealD
R15 N019 0 50
R16 P001 0 50
V8 N016 N018 100
V9 N017 N019 100
R17 N013 0 1e6
R18 N014 0 1e6
L1 Anode N001 1.92n
C9 N001 N002 3p
R37 N002 Cathode 2.3
R38 N001 Cathode 1e7
D17 N001 Positive idealD
D18 Positive Cathode Before_snapback
D9 Negative N001 idealD
D10 Cathode Negative Before_snapback
D11 Cathode Negative mainIVneg
.model D D
.model snapback1SW SW(Ron=0.01 Roff=1e6 Von=10 Voff=9.8)
.model mainIV D(Is=6.8e-17 N=6.5 Rs=0.31 )
.model sbcmSW SW(Ron=0.001 Roff=5 Von=0.1 Voff=0)
.model cmSW SW(Ron=0.001 Roff=20 Von=4.6 Voff=0)
* Positive
* Negative
.model idealD D(Is=1e-14 N=0.1 Rs=0.001 )
.model Before_snapback D(Is=2.55e-16 N=8 Rs=200)
.ic v(snap_c)=0
*.ic v(snap_c_N)=0
.model mainIVneg D(Is=6.8e-17 N=0.4 Rs=0.0001 )
.ends 824011_pin
******
.subckt 824011_vdd Anode Cathode
E1 N005 0 Positive Cathode 1
V1 Snap_A Snap_B 7.6
D1 0 Snap_B idealD
C1 snap_c 0 450p
R1 snap_c 0 1e6
D2 Test N006 idealD
V2 N006 N008 100
R2 N008 0 50
D3 N007 Test idealD
R3 N007 0 50
R4 Snap_C_LP snap_c 11
C2 Snap_C_LP 0 24p
S1 V3 Positive Snap_C_LP 0 snapback1SW
F1 0 Test V3 -1
R5 0 Test 1e100
R6 Cathode Positive 1e100
R7 Snap_A N005 1K
D4 N012 Cathode mainIV
R8 0 Snap_B 1e100
R9 0 snap_c 1e100
V3 B V3 0
R10 Test snap_c 1000
G1 0 snap_c 0 Snap_B -1
F2 0 N013 V4 +1
R11 N013 0 1e100
V4 B N009 0
S2 N010 N009 SBCM_C 0 sbcmSW
V5 SBCM_C N013 0.025
C3 N013 0 900p
D5 N013 N016 idealD
D6 N015 N013 idealD
R12 N018 0 50
R13 N015 0 50
F3 0 N014 V6 +1
R14 N014 0 1e100
V6 N010 N011 0
S3 N012 N011 CM_C 0 cmSW
V7 CM_C N014 1.75
C4 N014 0 70n
D7 N014 N017 idealD
D8 P001 N014 idealD
R15 N019 0 50
R16 P001 0 50
V8 N016 N018 100
V9 N017 N019 100
R17 N013 0 1e6
R18 N014 0 1e6
L1 Anode N001 1.5n
C9 N001 N002 135p
R37 N002 Cathode 2.95
R38 N001 Cathode 1e7
D17 N001 Positive idealD
D18 Positive Cathode Before_snapback
D9 Cathode Negative mainIVneg
D10 Negative N001 idealD
D11 Cathode Negative Before_snapback
.model D D
.model snapback1SW SW(Ron=0.01 Roff=1e6 Von=10 Voff=9.8)
.model mainIV D(Is=6.8e-17 N=5.4 Rs=0.16 )
.model sbcmSW SW(Ron=0.001 Roff=21 Von=0.1 Voff=0)
.model cmSW SW(Ron=0.001 Roff=20 Von=5 Voff=0)
* Positive
* Negative
.model idealD D(Is=1e-14 N=0.1 Rs=0.001 )
.model Before_snapback D(Is=2e-16 N=9.7 Rs=3)
.ic v(snap_c)=0
*.ic v(snap_c_N)=0
.model mainIVneg D(Is=6.8e-17 N=0.5 Rs=0.0001 )
.ends 824011_vdd
******
.subckt 824001_pin Anode Cathode
E1 N005 0 Positive Cathode 1
V1 Snap_A Snap_B 9.7
D1 0 Snap_B idealD
C1 snap_c 0 500p
R1 snap_c 0 1e6
D2 Test N006 idealD
V2 N006 N008 100
R2 N008 0 50
D3 N007 Test idealD
R3 N007 0 50
R4 Snap_C_LP snap_c 10
C2 Snap_C_LP 0 24p
S1 V3 Positive Snap_C_LP 0 snapback1SW
F1 0 Test V3 -1
R5 0 Test 1e100
R6 Cathode Positive 1e100
R7 Snap_A N005 1K
D4 N016 Cathode mainIV
R8 0 Snap_B 1e100
R9 0 snap_c 1e100
V3 B V3 0
R10 Test snap_c 1000
G1 0 snap_c 0 Snap_B -1
F2 0 N019 V4 +1
R11 N019 0 1e100
V4 B N013 0
S2 N014 N013 SBCM_C 0 sbcmSW
V5 SBCM_C N019 5
C3 N019 0 100p
D5 N019 N025 idealD
D6 N022 N019 idealD
R12 N029 0 50
R13 N022 0 50
F3 0 N020 V6 +1
R14 N020 0 1e100
V6 N014 N015 0
S3 N016 N015 CM_C 0 cmSW
V7 CM_C N020 1.75
C4 N020 0 62n
D7 N020 N026 idealD
D8 P001 N020 idealD
R15 N030 0 50
R16 P001 0 50
V8 N025 N029 100
V9 N026 N030 100
R17 N019 0 1e6
R18 N020 0 1e6
D12 Cathode N012 mainIVneg
F5 0 N017 V13 -1
R29 N017 0 1e100
V13 Negative N009 0
S5 N010 N009 SBCM_C_N 0 sbcmSWneg
V14 SBCM_C_N N017 5
C7 N017 0 5p
D13 N017 N023 idealD
D14 N021 N017 idealD
R30 N027 0 50
R31 N021 0 50
F6 0 N018 V15 -1
R32 N018 0 1e100
V15 N010 N011 0
S6 N012 N011 CM_C_N 0 cmSWneg
V16 CM_C_N N018 1.75
C8 N018 0 10n
D15 N018 N024 idealD
D16 P002 N018 idealD
R33 N028 0 50
R34 P002 0 50
V17 N023 N027 100
V18 N024 N028 100
R35 N017 0 1e6
R36 N018 0 1e6
L1 Anode N001 2.06n
C9 N001 N002 1.5p
R37 N002 Cathode 4.48
R38 N001 Cathode 1e7
D17 N001 Positive idealD
D18 Positive Cathode Before_snapback
D19 Negative N001 idealD
D20 Cathode Negative Before_snapback
.model D D
.model snapback1SW SW(Ron=0.01 Roff=1e6 Von=3 Voff=2.8)
.model mainIV D(Is=6.8e-17 N=7.3 Rs=0.21 )
.model sbcmSW SW(Ron=0.001 Roff=50 Von=20 Voff=0)
.model cmSW SW(Ron=0.001 Roff=10 Von=5 Voff=0)
* Positive
* Negative
.model idealD D(Is=1e-14 N=0.1 Rs=0.001 )
.model Before_snapback D(Is=2.55e-16 N=9.8 Rs=10.4)
.ic v(snap_c)=0
*.ic v(snap_c_N)=0
.model mainIVneg D(Is=6.8e-17 N=1.1 Rs=0.18 )
.model sbcmSWneg SW(Ron=0.001 Roff=33 Von=20 Voff=0)
.model cmSWneg SW(Ron=0.001 Roff=150 Von=5 Voff=0)
.ends 824001_pin
******
.subckt 824001_vdd Anode Cathode
E1 N005 0 Positive Cathode 1
V1 Snap_A Snap_B 8.9
D1 0 Snap_B idealD
C1 snap_c 0 600p
R1 snap_c 0 1e6
D2 Test N006 idealD
V2 N006 N008 100
R2 N008 0 50
D3 N007 Test idealD
R3 N007 0 50
R4 Snap_C_LP snap_c 11
C2 Snap_C_LP 0 24p
S1 V3 Positive Snap_C_LP 0 snapback1SW
F1 0 Test V3 -1
R5 0 Test 1e100
R6 Cathode Positive 1e100
R7 Snap_A N005 1K
D4 N016 Cathode mainIV
R8 0 Snap_B 1e100
R9 0 snap_c 1e100
V3 B V3 0
R10 Test snap_c 1000
G1 0 snap_c 0 Snap_B -1
F2 0 N019 V4 +1
R11 N019 0 1e100
V4 B N013 0
S2 N014 N013 SBCM_C 0 sbcmSW
V5 SBCM_C N019 12.5
C3 N019 0 300p
D5 N019 N025 idealD
D6 N022 N019 idealD
R12 N029 0 50
R13 N022 0 50
F3 0 N020 V6 +1
R14 N020 0 1e100
V6 N014 N015 0
S3 N016 N015 CM_C 0 cmSW
V7 CM_C N020 1.75
C4 N020 0 30n
D7 N020 N026 idealD
D8 P001 N020 idealD
R15 N030 0 50
R16 P001 0 50
V8 N025 N029 100
V9 N026 N030 100
R17 N019 0 1e6
R18 N020 0 1e6
D12 Cathode N012 mainIVneg
F5 0 N017 V13 -1
R29 N017 0 1e100
V13 Negative N009 0
S5 N010 N009 SBCM_C_N 0 sbcmSWneg
V14 SBCM_C_N N017 10
C7 N017 0 200p
D13 N017 N023 idealD
D14 N021 N017 idealD
R30 N027 0 50
R31 N021 0 50
F6 0 N018 V15 -1
R32 N018 0 1e100
V15 N010 N011 0
S6 N012 N011 CM_C_N 0 cmSWneg
V16 CM_C_N N018 1.75
C8 N018 0 30n
D15 N018 N024 idealD
D16 P002 N018 idealD
R33 N028 0 50
R34 P002 0 50
V17 N023 N027 100
V18 N024 N028 100
R35 N017 0 1e6
R36 N018 0 1e6
L1 Anode N001 1.3n
C9 N001 N002 45p
R37 N002 Cathode 5
R38 N001 Cathode 1e7
D17 N001 Positive idealD
D18 Positive Cathode Before_snapback
D19 Negative N001 idealD
D20 Cathode Negative Before_snapback
D9 Cathode N012 mainIVneg1
D10 Cathode N012 mainIVneg2
.model D D
.model snapback1SW SW(Ron=0.01 Roff=1e6 Von=3 Voff=2.8)
.model mainIV D(Is=6.8e-17 N=5.4 Rs=0.115 )
.model sbcmSW SW(Ron=0.001 Roff=30 Von=50 Voff=0)
.model cmSW SW(Ron=0.001 Roff=20 Von=5 Voff=0)
* Positive
* Negative
.model idealD D(Is=1e-14 N=0.1 Rs=0.001 )
.model Before_snapback D(Is=2e-16 N=9.7 Rs=3)
.ic v(snap_c)=0
*.ic v(snap_c_N)=0
.model mainIVneg D(Is=6.8e-17 N=0.9 Rs=0.26 )
.model mainIVneg1 D(Is=6.8e-17 N=1.4 Rs=0.34 )
.model sbcmSWneg SW(Ron=0.001 Roff=33 Von=50 Voff=0)
.model cmSWneg SW(Ron=0.001 Roff=20 Von=5 Voff=0)
.model mainIVneg2 D(Is=6.8e-17 N=2.7 Rs=0.24 )
.ends 824001_vdd
******
.subckt 824015_pin Anode Cathode
E1 N005 0 Positive Cathode 1
V1 Snap_A Snap_B 8.9
D1 0 Snap_B idealD
C1 snap_c 0 10p
R1 snap_c 0 1e6
D2 Test N006 idealD
V2 N006 N008 100
R2 N008 0 50
D3 N007 Test idealD
R3 N007 0 50
R4 Snap_C_LP snap_c 10
C2 Snap_C_LP 0 24p
S1 V3 Positive Snap_C_LP 0 snapback1SW
F1 0 Test V3 -1
R5 0 Test 1e100
R6 Cathode Positive 1e100
R7 Snap_A N005 1K
D4 N016 Cathode mainIV
R8 0 Snap_B 1e100
R9 0 snap_c 1e100
V3 B V3 0
R10 Test snap_c 1000
G1 0 snap_c 0 Snap_B -1
F2 0 N019 V4 +1
R11 N019 0 1e100
V4 B N013 0
S2 N014 N013 SBCM_C 0 sbcmSW
V5 SBCM_C N019 0.25
C3 N019 0 1p
D5 N019 N025 idealD
D6 N022 N019 idealD
R12 N029 0 50
R13 N022 0 50
F3 0 N020 V6 +1
R14 N020 0 1e100
V6 N014 N015 0
S3 N016 N015 CM_C 0 cmSW
V7 CM_C N020 2
C4 N020 0 10n
D7 N020 N026 idealD
D8 P001 N020 idealD
R15 N030 0 50
R16 P001 0 50
V8 N025 N029 100
V9 N026 N030 100
R17 N019 0 1e6
R18 N020 0 1e6
D12 Cathode N012 mainIVneg
F5 0 N017 V13 -1
R29 N017 0 1e100
V13 Negative N009 0
S5 N010 N009 SBCM_C_N 0 sbcmSWneg
V14 SBCM_C_N N017 0.05
C7 N017 0 50p
D13 N017 N023 idealD
D14 N021 N017 idealD
R30 N027 0 50
R31 N021 0 50
F6 0 N018 V15 -1
R32 N018 0 1e100
V15 N010 N011 0
S6 N012 N011 CM_C_N 0 cmSWneg
V16 CM_C_N N018 1.5
C8 N018 0 1500p
D15 N018 N024 idealD
D16 P002 N018 idealD
R33 N028 0 50
R34 P002 0 50
V17 N023 N027 100
V18 N024 N028 100
R35 N017 0 1e6
R36 N018 0 1e6
L1 Anode N001 2n
C9 N001 N002 1.7p
R37 N002 Cathode 2.33
R38 N001 Cathode 1e7
D17 N001 Positive idealD
D18 Positive Cathode Before_snapback
D19 Negative N001 idealD
D20 Cathode Negative Before_snapback
.model D D
.model snapback1SW SW(Ron=0.01 Roff=1e6 Von=6 Voff=5.8)
.model mainIV D(Is=6.8e-17 N=6.9 Rs=0.28 )
.model sbcmSW SW(Ron=0.001 Roff=1 Von=1 Voff=0)
.model cmSW SW(Ron=0.001 Roff=21 Von=6 Voff=0)
* Positive
* Negative
.model idealD D(Is=1e-14 N=0.1 Rs=0.001 )
.model Before_snapback D(Is=5e-16 N=8 Rs=32)
.ic v(snap_c)=0
*.ic v(snap_c_N)=0
.model mainIVneg D(Is=6.8e-17 N=1 Rs=0.22 )
.model sbcmSWneg SW(Ron=0.001 Roff=25 Von=1 Voff=0)
.model cmSWneg SW(Ron=0.001 Roff=10 Von=6 Voff=0)
.ends 824015_pin
******
.subckt 824015_vdd Anode Cathode
E1 N005 0 Positive Cathode 1
V1 Snap_A Snap_B 7.65
D1 0 Snap_B idealD
C1 snap_c 0 400p
R1 snap_c 0 1e6
D2 Test N006 idealD
V2 N006 N008 100
R2 N008 0 50
D3 N007 Test idealD
R3 N007 0 50
R4 Snap_C_LP snap_c 10
C2 Snap_C_LP 0 24p
S1 V3 Positive Snap_C_LP 0 snapback1SW
F1 0 Test V3 -1
R5 0 Test 1e100
R6 Cathode Positive 1e100
R7 Snap_A N005 1K
D4 N016 Cathode mainIV
R8 0 Snap_B 1e100
R9 0 snap_c 1e100
V3 B V3 0
R10 Test snap_c 1000
G1 0 snap_c 0 Snap_B -1
F2 0 N019 V4 +1
R11 N019 0 1e100
V4 B N013 0
S2 N014 N013 SBCM_C 0 sbcmSW
V5 SBCM_C N019 0.25
C3 N019 0 1p
D5 N019 N025 idealD
D6 N022 N019 idealD
R12 N029 0 50
R13 N022 0 50
F3 0 N020 V6 +1
R14 N020 0 1e100
V6 N014 N015 0
S3 N016 N015 CM_C 0 cmSW
V7 CM_C N020 1.75
C4 N020 0 10n
D7 N020 N026 idealD
D8 P001 N020 idealD
R15 N030 0 50
R16 P001 0 50
V8 N025 N029 100
V9 N026 N030 100
R17 N019 0 1e6
R18 N020 0 1e6
D12 Cathode N012 mainIVneg
F5 0 N017 V13 -1
R29 N017 0 1e100
V13 Negative N009 0
S5 N010 N009 SBCM_C_N 0 sbcmSWneg
V14 SBCM_C_N N017 0.05
C7 N017 0 1000p
D13 N017 N023 idealD
D14 N021 N017 idealD
R30 N027 0 50
R31 N021 0 50
F6 0 N018 V15 -1
R32 N018 0 1e100
V15 N010 N011 0
S6 N012 N011 CM_C_N 0 cmSWneg
V16 CM_C_N N018 1.25
C8 N018 0 100p
D15 N018 N024 idealD
D16 P002 N018 idealD
R33 N028 0 50
R34 P002 0 50
V17 N023 N027 100
V18 N024 N028 100
R35 N017 0 1e6
R36 N018 0 1e6
L1 Anode N001 1.95n
C9 N001 N002 21p
R37 N002 Cathode 2.68
R38 N001 Cathode 1e7
D17 N001 Positive idealD
D18 Positive Cathode Before_snapback
D19 Negative N001 idealD
D20 Cathode Negative Before_snapback
D9 Cathode N012 mainIVneg1
.model D D
.model snapback1SW SW(Ron=0.01 Roff=1e6 Von=1 Voff=0.8)
.model mainIV D(Is=6.8e-17 N=5.5 Rs=0.13 )
.model sbcmSW SW(Ron=0.001 Roff=1 Von=1 Voff=0)
.model cmSW SW(Ron=0.001 Roff=5 Von=5 Voff=0)
* Positive
* Negative
.model idealD D(Is=1e-14 N=0.1 Rs=0.001 )
.model Before_snapback D(Is=5e-16 N=9.8 Rs=80)
.ic v(snap_c)=0
*.ic v(snap_c_N)=0
.model mainIVneg D(Is=6e-17 N=0.9 Rs=0.3 )
.model mainIVneg1 D(Is=1.14e-16 N=1.5 Rs=0.8 )
.model sbcmSWneg SW(Ron=0.001 Roff=30 Von=1 Voff=0)
.model cmSWneg SW(Ron=0.001 Roff=10 Von=5 Voff=0)
.ends 824015_vdd
******
.subckt 8240116_pin Anode Cathode
E1 N005 0 Positive Cathode 1
V1 Snap_A Snap_B 8.45
D1 0 Snap_B idealD
C1 snap_c 0 400p
R1 snap_c 0 1e6
D2 Test N006 idealD
V2 N006 N008 100
R2 N008 0 50
D3 N007 Test idealD
R3 N007 0 50
R4 Snap_C_LP snap_c 11
C2 Snap_C_LP 0 24p
S1 V3 Positive Snap_C_LP 0 snapback1SW
F1 0 Test V3 -1
R5 0 Test 1e100
R6 Cathode Positive 1e100
R7 Snap_A N005 1K
D4 N016 Cathode mainIV
R8 0 Snap_B 1e100
R9 0 snap_c 1e100
V3 B V3 0
R10 Test snap_c 1000
G1 0 snap_c 0 Snap_B -1
F2 0 N019 V4 +1
R11 N019 0 1e100
V4 B N013 0
S2 N014 N013 SBCM_C 0 sbcmSW
V5 SBCM_C N019 3.5
C3 N019 0 500p
D5 N019 N025 idealD
D6 N022 N019 idealD
R12 N029 0 50
R13 N022 0 50
F3 0 N020 V6 +1
R14 N020 0 1e100
V6 N014 N015 0
S3 N016 N015 CM_C 0 cmSW
V7 CM_C N020 1.75
C4 N020 0 53n
D7 N020 N026 idealD
D8 P001 N020 idealD
R15 N030 0 50
R16 P001 0 50
V8 N025 N029 100
V9 N026 N030 100
R17 N019 0 1e6
R18 N020 0 1e6
D12 Cathode N012 mainIVneg
F5 0 N017 V13 -1
R29 N017 0 1e100
V13 Negative N009 0
S5 N010 N009 SBCM_C_N 0 sbcmSWn
V14 SBCM_C_N N017 3.5
C7 N017 0 5p
D13 N017 N023 idealD
D14 N021 N017 idealD
R30 N027 0 50
R31 N021 0 50
F6 0 N018 V15 -1
R32 N018 0 1e100
V15 N010 N011 0
S6 N012 N011 CM_C_N 0 cmSW
V16 CM_C_N N018 1.75
C8 N018 0 80n
D15 N018 N024 idealD
D16 P002 N018 idealD
R33 N028 0 50
R34 P002 0 50
V17 N023 N027 100
V18 N024 N028 100
R35 N017 0 1e6
R36 N018 0 1e6
L1 Anode N001 2n
C9 N001 N002 3p
R37 N002 Cathode 3.06
R38 N001 Cathode 1e7
D17 N001 Positive idealD
D19 Negative N001 idealD
D9 Positive 0 Before_snapback
D10 0 Negative Before_snapback
.model D D
.model snapback1SW SW(Ron=0.01 Roff=1e6 Von=3 Voff=1)
.model mainIV D(Is=1e-16 N=6.5 Rs=0.33 )
.model sbcmSW SW(Ron=0.001 Roff=10 Von=14 Voff=0)
.model cmSW SW(Ron=0.001 Roff=5 Von=5 Voff=0)
* Positive
* Negative
.model idealD D(Is=1e-14 N=0.1 Rs=0.001 )
.ic v(snap_c)=0
*.ic v(snap_c_N)=0
.model mainIVneg D(Is=1e-16 N=0.8 Rs=0.5 )
.model sbcmSWn SW(Ron=0.001 Roff=5 Von=14 Voff=0)
.model Before_snapback D(Is=1e-16 N=2 Rs=400 )
.ends 8240116_pin
******
.subckt 8240116_vdd Anode Cathode
E1 N005 0 Positive Cathode 1
V1 Snap_A Snap_B 7.8
D1 0 Snap_B idealD
C1 snap_c 0 400p
R1 snap_c 0 1e6
D2 Test N006 idealD
V2 N006 N008 100
R2 N008 0 50
D3 N007 Test idealD
R3 N007 0 50
R4 Snap_C_LP snap_c 11
C2 Snap_C_LP 0 24p
S1 V3 Positive Snap_C_LP 0 snapback1SW
F1 0 Test V3 -1
R5 0 Test 1e100
R6 Cathode Positive 1e100
R7 Snap_A N005 1K
D4 N016 Cathode mainIV
R8 0 Snap_B 1e100
R9 0 snap_c 1e100
V3 B V3 0
R10 Test snap_c 1000
G1 0 snap_c 0 Snap_B -1
F2 0 N019 V4 +1
R11 N019 0 1e100
V4 B N013 0
S2 N014 N013 SBCM_C 0 sbcmSW
V5 SBCM_C N019 6
C3 N019 0 3000p
D5 N019 N025 idealD
D6 N022 N019 idealD
R12 N029 0 50
R13 N022 0 50
F3 0 N020 V6 +1
R14 N020 0 1e100
V6 N014 N015 0
S3 N016 N015 CM_C 0 cmSW
V7 CM_C N020 2.25
C4 N020 0 20n
D7 N020 N026 idealD
D8 P001 N020 idealD
R15 N030 0 50
R16 P001 0 50
V8 N025 N029 100
V9 N026 N030 100
R17 N019 0 1e6
R18 N020 0 1e6
D12 Cathode N012 mainIVneg
F5 0 N017 V13 -1
R29 N017 0 1e100
V13 Negative N009 0
S5 N010 N009 SBCM_C_N 0 sbcmSW
V14 SBCM_C_N N017 6
C7 N017 0 4000p
D13 N017 N023 idealD
D14 N021 N017 idealD
R30 N027 0 50
R31 N021 0 50
F6 0 N018 V15 -1
R32 N018 0 1e100
V15 N010 N011 0
S6 N012 N011 CM_C_N 0 cmSW
V16 CM_C_N N018 2.25
C8 N018 0 25n
D15 N018 N024 idealD
D16 P002 N018 idealD
R33 N028 0 50
R34 P002 0 50
V17 N023 N027 100
V18 N024 N028 100
R35 N017 0 1e6
R36 N018 0 1e6
L1 Anode N001 1.2n
C9 N001 N002 100p
R37 N002 Cathode 3.386
R38 N001 Cathode 1e7
D17 N001 Positive idealD
D18 Positive Cathode Before_snapback
D19 Negative N001 idealD
D20 Cathode Negative Before_snapback
D9 Cathode N012 mainIVneg1
D10 Cathode N012 mainIVneg2
.model D D
.model snapback1SW SW(Ron=0.001 Roff=1e6 Von=4 Voff=3.8)
.model mainIV D(Is=1e-16 N=5.5 Rs=0.23 )
.model sbcmSW SW(Ron=0.001 Roff=30 Von=20 Voff=0)
.model cmSW SW(Ron=0.001 Roff=20 Von=7 Voff=0)
* Positive
* Negative
.model idealD D(Is=1e-14 N=0.1 Rs=0.001 )
.model Before_snapback D(Is=2.55e-16 N=10 Rs=4 )
.ic v(snap_c)=0
*.ic v(snap_c_N)=0
.model mainIVneg D(Is=1e-16 N=0.1 Rs=0.75)
.model mainIVneg1 D(Is=1e-16 N=1.3 Rs=0.6 )
.model mainIVneg2 D(Is=1e-16 N=4.7 Rs=1.85 )
.ends 8240116_vdd
******
.subckt 8240136_pin Anode Cathode
E1 N005 0 Positive Cathode 1
V1 Snap_A Snap_B 6.65
D1 0 Snap_B idealD
C1 snap_c 0 1p
R1 snap_c 0 1e6
D2 Test N006 idealD
V2 N006 N008 100
R2 N008 0 50
D3 N007 Test idealD
R3 N007 0 50
R4 Snap_C_LP snap_c 11
C2 Snap_C_LP 0 24p
S1 V3 Positive Snap_C_LP 0 snapback1SW
F1 0 Test V3 -1
R5 0 Test 1e100
R6 Cathode Positive 1e100
R7 Snap_A N005 1K
D4 N016 Cathode mainIV
R8 0 Snap_B 1e100
R9 0 snap_c 1e100
V3 B V3 0
R10 Test snap_c 1000
G1 0 snap_c 0 Snap_B -1
F2 0 N019 V4 +1
R11 N019 0 1e100
V4 B N013 0
S2 N014 N013 SBCM_C 0 sbcmSW
V5 SBCM_C N019 0.25
C3 N019 0 100p
D5 N019 N025 idealD
D6 N022 N019 idealD
R12 N029 0 50
R13 N022 0 50
F3 0 N020 V6 +1
R14 N020 0 1e100
V6 N014 N015 0
S3 N016 N015 CM_C 0 cmSW
V7 CM_C N020 0.75
C4 N020 0 1n
D7 N020 N026 idealD
D8 P001 N020 idealD
R15 N030 0 50
R16 P001 0 50
V8 N025 N029 100
V9 N026 N030 100
R17 N019 0 1e6
R18 N020 0 1e6
D12 Cathode N012 mainIVneg
F5 0 N017 V13 -1
R29 N017 0 1e100
V13 Negative N009 0
S5 N010 N009 SBCM_C_N 0 sbcmSW
V14 SBCM_C_N N017 0.25
C7 N017 0 400p
D13 N017 N023 idealD
D14 N021 N017 idealD
R30 N027 0 50
R31 N021 0 50
F6 0 N018 V15 -1
R32 N018 0 1e100
V15 N010 N011 0
S6 N012 N011 CM_C_N 0 cmSWn
V16 CM_C_N N018 0.75
C8 N018 0 30n
D15 N018 N024 idealD
D16 P002 N018 idealD
R33 N028 0 50
R34 P002 0 50
V17 N023 N027 100
V18 N024 N028 100
R35 N017 0 1e6
R36 N018 0 1e6
L1 Anode N001 2.16n
C9 N001 N002 3.5p
R37 N002 Cathode 2.71
R38 N001 Cathode 1e7
D17 N001 Positive idealD
D18 Positive Cathode Before_snapback
D19 Negative N001 idealD
D20 Cathode Negative Before_snapback
.model D D
.model snapback1SW SW(Ron=0.001 Roff=1e6 Von=10 Voff=9.8)
.model mainIV D(Is=1e-16 N=5.1 Rs=0.21 )
.model sbcmSW SW(Ron=0.001 Roff=20 Von=1 Voff=0)
.model cmSW SW(Ron=0.001 Roff=1 Von=1 Voff=0)
* Positive
* Negative
.model idealD D(Is=1e-14 N=0.1 Rs=0.001 )
.model Before_snapback D(Is=1e-16 N=3.6 Rs=275 )
.ic v(snap_c)=0
*.ic v(snap_c_N)=0
.model mainIVneg D(Is=1e-16 N=1.1 Rs=0.155 )
.model cmSWn SW(Ron=0.001 Roff=20 Von=1 Voff=0)
.model sbcmSWn SW(Ron=0.001 Roff=20 Von=1 Voff=0)
.ends 8240136_pin
******
.subckt 8240136_vdd Anode Cathode
E1 N005 0 Positive Cathode 1
V1 Snap_A Snap_B 5.75
D1 0 Snap_B idealD
C1 snap_c 0 1p
R1 snap_c 0 1e6
D2 Test N006 idealD
V2 N006 N008 100
R2 N008 0 50
D3 N007 Test idealD
R3 N007 0 50
R4 Snap_C_LP snap_c 11
C2 Snap_C_LP 0 24p
S1 V3 Positive Snap_C_LP 0 snapback1SW
F1 0 Test V3 -1
R5 0 Test 1e100
R6 Cathode Positive 1e100
R7 Snap_A N005 1K
D4 N016 Cathode mainIV
R8 0 Snap_B 1e100
R9 0 snap_c 1e100
V3 B V3 0
R10 Test snap_c 1000
G1 0 snap_c 0 Snap_B -1
F2 0 N019 V4 +1
R11 N019 0 1e100
V4 B N013 0
S2 N014 N013 SBCM_C 0 sbcmSW
V5 SBCM_C N019 0.025
C3 N019 0 100p
D5 N019 N025 idealD
D6 N022 N019 idealD
R12 N029 0 50
R13 N022 0 50
F3 0 N020 V6 +1
R14 N020 0 1e100
V6 N014 N015 0
S3 N016 N015 CM_C 0 cmSW
V7 CM_C N020 2
C4 N020 0 70n
D7 N020 N026 idealD
D8 P001 N020 idealD
R15 N030 0 50
R16 P001 0 50
V8 N025 N029 100
V9 N026 N030 100
R17 N019 0 1e6
R18 N020 0 1e6
D12 Cathode N012 mainIVneg
F5 0 N017 V13 -1
R29 N017 0 1e100
V13 Negative N009 0
S5 N010 N009 SBCM_C_N 0 sbcmSW
V14 SBCM_C_N N017 0.025
C7 N017 0 5p
D13 N017 N023 idealD
D14 N021 N017 idealD
R30 N027 0 50
R31 N021 0 50
F6 0 N018 V15 -1
R32 N018 0 1e100
V15 N010 N011 0
S6 N012 N011 CM_C_N 0 cmSWn
V16 CM_C_N N018 2
C8 N018 0 55n
D15 N018 N024 idealD
D16 P002 N018 idealD
R33 N028 0 50
R34 P002 0 50
V17 N023 N027 100
V18 N024 N028 100
R35 N017 0 1e6
R36 N018 0 1e6
L1 Anode N001 1.13n
C9 N001 N002 23.8p
R37 N002 Cathode 2.9
R38 N001 Cathode 1e7
D17 N001 Positive idealD
D18 Positive Cathode Before_snapback
D19 Negative N001 idealD
D20 Cathode Negative Before_snapback
.model D D
.model snapback1SW SW(Ron=0.001 Roff=1e6 Von=5 Voff=4.9)
.model mainIV D(Is=6.80066e-17 N=3.7 Rs=0.155 )
.model sbcmSW SW(Ron=0.001 Roff=5 Von=0.1 Voff=0)
.model cmSW SW(Ron=0.001 Roff=10 Von=6 Voff=0)
* Positive
* Negative
.model idealD D(Is=1e-14 N=0.1 Rs=0.001 )
.model Before_snapback D(Is=2.55e-16 N=5 Rs=800 )
.ic v(snap_c)=0
*.ic v(snap_c_N)=0
.model mainIVneg D(Is=6.80e-17 N=1 Rs=0.16 )
.model cmSWn SW(Ron=0.001 Roff=7 Von=6 Voff=0)
.ends 8240136_vdd
******
.subckt 82400152_pin Anode Cathode
E1 N005 0 Positive Cathode 1
V1 Snap_A Snap_B 9.6
D1 0 Snap_B idealD
C1 snap_c 0 1p
R1 snap_c 0 1e6
D2 Test N006 idealD
V2 N006 N008 100
R2 N008 0 50
D3 N007 Test idealD
R3 N007 0 50
R4 Snap_C_LP snap_c 11
C2 Snap_C_LP 0 24p
S1 V3 Positive Snap_C_LP 0 snapback1SW
F1 0 Test V3 -1
R5 0 Test 1e100
R6 Cathode Positive 1e100
R7 Snap_A N005 1K
D4 N016 Cathode mainIV
R8 0 Snap_B 1e100
R9 0 snap_c 1e100
V3 B V3 0
R10 Test snap_c 1000
G1 0 snap_c 0 Snap_B -1
F2 0 N019 V4 +1
R11 N019 0 1e100
V4 B N013 0
S2 N014 N013 SBCM_C 0 sbcmSW
V5 SBCM_C N019 7.5
C3 N019 0 400p
D5 N019 N025 idealD
D6 N022 N019 idealD
R12 N029 0 50
R13 N022 0 50
F3 0 N020 V6 +1
R14 N020 0 1e100
V6 N014 N015 0
S3 N016 N015 CM_C 0 cmSW
V7 CM_C N020 2.25
C4 N020 0 50n
D7 N020 N026 idealD
D8 P001 N020 idealD
R15 N030 0 50
R16 P001 0 50
V8 N025 N029 100
V9 N026 N030 100
R17 N019 0 1e6
R18 N020 0 1e6
D12 Cathode N012 mainIVneg
F5 0 N017 V13 -1
R29 N017 0 1e100
V13 Negative N009 0
S5 N010 N009 SBCM_C_N 0 sbcmSW
V14 SBCM_C_N N017 7.5
C7 N017 0 600p
D13 N017 N023 idealD
D14 N021 N017 idealD
R30 N027 0 50
R31 N021 0 50
F6 0 N018 V15 -1
R32 N018 0 1e100
V15 N010 N011 0
S6 N012 N011 CM_C_N 0 cmSW
V16 CM_C_N N018 2.25
C8 N018 0 130n
D15 N018 N024 idealD
D16 P002 N018 idealD
R33 N028 0 50
R34 P002 0 50
V17 N023 N027 100
V18 N024 N028 100
R35 N017 0 1e6
R36 N018 0 1e6
L1 Anode N001 1n
C9 N001 N002 2.5p
R37 N002 Cathode 2.39
R38 N001 Cathode 1e7
D17 N001 Positive idealD
D18 Positive Cathode Before_snapback
D19 Negative N001 idealD
D20 Cathode Negative Before_snapback
D9 Cathode N012 mainIVneg1
D10 Cathode N012 mainIVneg2
.model D D
.model snapback1SW SW(Ron=0.01 Roff=1e6 Von=5 Voff=4.8)
.model mainIV D(Is=1e-16 N=6.9 Rs=0.15 )
.model sbcmSW SW(Ron=0.001 Roff=20 Von=30 Voff=0)
.model cmSW SW(Ron=0.001 Roff=1 Von=7 Voff=0)
* Positive
* Negative
.model idealD D(Is=1e-14 N=0.1 Rs=0.001 )
.model Before_snapback D(Is=1e-16 N=10.2 Rs=4)
.ic v(snap_c)=0
*.ic v(snap_c_N)=0
.model mainIVneg D(Is=1e-16 N=0.9 Rs=0.54 )
.model mainIVneg1 D(Is=1e-16 N=1.1 Rs=0.2 )
.model mainIVneg2 D(Is=1e-16 N=1.8 Rs=0.35 )
.ends 82400152_pin
******
.subckt 82400152_vdd Anode Cathode
E1 N005 0 Positive Cathode 1
V1 Snap_A Snap_B 9.3
D1 0 Snap_B idealD
C1 snap_c 0 200p
R1 snap_c 0 1e6
D2 Test N006 idealD