**************************************************
* Manufacturer:           Würth Elektronik
* Kinds:                  Power TVS Diode
* Matchcode:              WE-TVSP
* Library Type:           LTspice
* Version:                rev26a
* Created/modified by:    Ella
* Date and Time:          3/24/2026
* Team:                   eiSos EDA Service  
* Contact:                libraries@we-online.com
**************************************************
* Copyright(C) 2026 Würth Elektronik eiSos GmbH & Co. KG
* All Rights Reserved.
**************************************************
* Disclaimer: While Würth Elektronik eiSos has made every reasonable effort to ensure the accuracy
* of the simulation models provided, Würth Elektronik eiSos does not guarantee the exemption of error on
* the simulation models, nor does Würth Elektronik eiSos guarantee that the simulation model is current.
* Würth Elektronik eiSos reserves the right to make any adjustments at any time without notice.
* Würth Elektronik eiSos expressly disclaims all implied warranties regarding this simulation model.
**************************************************
.subckt DO-214AA_824520101 1 2
D1 1 2 DTVS
Rleak 1 2 2Meg
.MODEL DTVS D (IS=0.00001 N=1.5 RS=0.15014164305949 IBV=1m BV=11.7 CJO=2691.65p)
.ends DO-214AA_824520101
*******
.subckt DO-214AA_824520102 1 2
D1 1 2 DTVS
Rleak 1 2 100Meg
.MODEL DTVS D (IS=0.00001 N=1.5 RS=12.1621621621622 IBV=1m BV=117 CJO=240.2p)
.ends DO-214AA_824520102
*******
.subckt DO-214AA_824520111 1 2
D1 1 2 DTVS
Rleak 1 2 11Meg
.MODEL DTVS D (IS=0.00001 N=1.5 RS=0.162121212121212 IBV=1m BV=12.85 CJO=1825.56p)
.ends DO-214AA_824520111
*******
.subckt DO-214AA_824520121 1 2
D1 1 2 DTVS
Rleak 1 2 12Meg
.MODEL DTVS D (IS=0.00001 N=1.5 RS=0.195364238410596 IBV=1m BV=14 CJO=1583.62p)
.ends DO-214AA_824520121
*******
.subckt DO-214AA_824520131 1 2
D1 1 2 DTVS
Rleak 1 2 13Meg
.MODEL DTVS D (IS=0.00001 N=1.5 RS=0.226785714285714 IBV=1m BV=15.15 CJO=1419.98p)
.ends DO-214AA_824520131
*******
.subckt DO-214AA_824520141 1 2
D1 1 2 DTVS
Rleak 1 2 14Meg
.MODEL DTVS D (IS=0.00001 N=1.5 RS=0.262548262548263 IBV=1m BV=16.4 CJO=1461.17p)
.ends DO-214AA_824520141
*******
.subckt DO-214AA_824520151 1 2
D1 1 2 DTVS
Rleak 1 2 15Meg
.MODEL DTVS D (IS=0.00001 N=1.5 RS=0.276422764227642 IBV=1m BV=17.6 CJO=1261.23p)
.ends DO-214AA_824520151
*******
.subckt DO-214AA_824520161 1 2
D1 1 2 DTVS
Rleak 1 2 16Meg
.MODEL DTVS D (IS=0.00001 N=1.5 RS=0.313852813852814 IBV=1m BV=18.75 CJO=1298.21p)
.ends DO-214AA_824520161
*******
.subckt DO-214AA_824520162 1 2
D1 1 2 DTVS
Rleak 1 2 160Meg
.MODEL DTVS D (IS=0.00001 N=1.5 RS=31.0869565217391 IBV=1m BV=187.5 CJO=208.47p)
.ends DO-214AA_824520162
*******
.subckt DO-214AA_824520171 1 2
D1 1 2 DTVS
Rleak 1 2 17Meg
.MODEL DTVS D (IS=0.00001 N=1.5 RS=0.353211009174312 IBV=1m BV=19.9 CJO=1218.02p)
.ends DO-214AA_824520171
*******
.subckt DO-214AA_824520181 1 2
D1 1 2 DTVS
Rleak 1 2 18Meg
.MODEL DTVS D (IS=0.00001 N=1.5 RS=0.395631067961165 IBV=1m BV=21.05 CJO=1184.23p)
.ends DO-214AA_824520181
*******
.subckt DO-214AA_824520201 1 2
D1 1 2 DTVS
Rleak 1 2 20Meg
.MODEL DTVS D (IS=0.00001 N=1.5 RS=0.486559139784946 IBV=1m BV=23.35 CJO=1125.67p)
.ends DO-214AA_824520201
*******
.subckt DO-214AA_824520202 1 2
D1 1 2 DTVS
Rleak 1 2 200Meg
.MODEL DTVS D (IS=0.00001 N=1.5 RS=46.5789473684211 IBV=1m BV=235.5 CJO=192.76p)
.ends DO-214AA_824520202
*******
.subckt DO-214AA_824520221 1 2
D1 1 2 DTVS
Rleak 1 2 22Meg
.MODEL DTVS D (IS=0.00001 N=1.5 RS=0.582840236686391 IBV=1m BV=25.65 CJO=855.41p)
.ends DO-214AA_824520221
*******
.subckt DO-214AA_824520222 1 2
D1 1 2 DTVS
Rleak 1 2 200Meg
.MODEL DTVS D (IS=0.00001 N=1.5 RS=57.0588235294118 IBV=1m BV=259 CJO=189.52p)
.ends DO-214AA_824520222
*******
.subckt DO-214AA_824520241 1 2
D1 1 2 DTVS
Rleak 1 2 24Meg
.MODEL DTVS D (IS=0.00001 N=1.5 RS=0.696774193548387 IBV=1m BV=28.1 CJO=882.47p)
.ends DO-214AA_824520241
*******
.subckt DO-214AA_824520252 1 2
D1 1 2 DTVS
Rleak 1 2 200Meg
.MODEL DTVS D (IS=0.00001 N=1.5 RS=74 IBV=1m BV=294 CJO=161.55p)
.ends DO-214AA_824520252
*******
.subckt DO-214AA_824520261 1 2
D1 1 2 DTVS
Rleak 1 2 26Meg
.MODEL DTVS D (IS=0.00001 N=1.5 RS=0.818181818181818 IBV=1m BV=30.4 CJO=774.33p)
.ends DO-214AA_824520261
*******
.subckt DO-214AA_824520281 1 2
D1 1 2 DTVS
Rleak 1 2 28Meg
.MODEL DTVS D (IS=0.00001 N=1.5 RS=0.951127819548872 IBV=1m BV=32.75 CJO=735.66p)
.ends DO-214AA_824520281
*******
.subckt DO-214AA_824520301 1 2
D1 1 2 DTVS
Rleak 1 2 30Meg
.MODEL DTVS D (IS=0.00001 N=1.5 RS=1.07661290322581 IBV=1m BV=35.05 CJO=741.41p)
.ends DO-214AA_824520301
*******
.subckt DO-214AA_824520302 1 2
D1 1 2 DTVS
Rleak 1 2 200Meg
.MODEL DTVS D (IS=0.00001 N=1.5 RS=102.307692307692 IBV=1m BV=353 CJO=73.65p)
.ends DO-214AA_824520302
*******
.subckt DO-214AA_824520331 1 2
D1 1 2 DTVS
Rleak 1 2 33Meg
.MODEL DTVS D (IS=0.00001 N=1.5 RS=1.29646017699115 IBV=1m BV=38.65 CJO=634.8p)
.ends DO-214AA_824520331
*******
.subckt DO-214AA_824520352 1 2
D1 1 2 DTVS
Rleak 1 2 200Meg
.MODEL DTVS D (IS=0.00001 N=1.5 RS=141.363636363636 IBV=1m BV=411.5 CJO=79.73p)
.ends DO-214AA_824520352
*******
.subckt DO-214AA_824520361 1 2
D1 1 2 DTVS
Rleak 1 2 36Meg
.MODEL DTVS D (IS=0.00001 N=1.5 RS=1.53846153846154 IBV=1m BV=42.1 CJO=569.09p)
.ends DO-214AA_824520361
*******
.subckt DO-214AA_824520401 1 2
D1 1 2 DTVS
Rleak 1 2 40Meg
.MODEL DTVS D (IS=0.00001 N=1.5 RS=1.90860215053763 IBV=1m BV=46.75 CJO=479.09p)
.ends DO-214AA_824520401
*******
.subckt DO-214AA_824520402 1 2
D1 1 2 DTVS
Rleak 1 2 200Meg
.MODEL DTVS D (IS=0.00001 N=1.5 RS=197.222222222222 IBV=1m BV=470.5 CJO=92.93p)
.ends DO-214AA_824520402
*******
.subckt DO-214AA_824520431 1 2
D1 1 2 DTVS
Rleak 1 2 43Meg
.MODEL DTVS D (IS=0.00001 N=1.5 RS=2.19540229885058 IBV=1m BV=50.3 CJO=467.16p)
.ends DO-214AA_824520431
*******
.subckt DO-214AA_824520442 1 2
D1 1 2 DTVS
Rleak 1 2 200Meg
.MODEL DTVS D (IS=0.00001 N=1.5 RS=217.222222222222 IBV=1m BV=517.5 CJO=61.7p)
.ends DO-214AA_824520442
*******
.subckt DO-214AA_824520451 1 2
D1 1 2 DTVS
Rleak 1 2 45Meg
.MODEL DTVS D (IS=0.00001 N=1.5 RS=2.41566265060241 IBV=1m BV=52.65 CJO=474.45p)
.ends DO-214AA_824520451
*******
.subckt DO-214AA_824520481 1 2
D1 1 2 DTVS
Rleak 1 2 48Meg
.MODEL DTVS D (IS=0.00001 N=1.5 RS=2.73076923076923 IBV=1m BV=56.1 CJO=434.99p)
.ends DO-214AA_824520481
*******
.subckt DO-214AA_824520500 1 2
D1 1 2 DTVS
Rleak 1 2 0.00625Meg
.MODEL DTVS D (IS=0.00001 N=1.5 RS=3.82848392036753E-02 IBV=10m BV=6.7 CJO=4541.48p)
.ends DO-214AA_824520500
*******
.subckt DO-214AA_824520511 1 2
D1 1 2 DTVS
Rleak 1 2 51Meg
.MODEL DTVS D (IS=0.00001 N=1.5 RS=3.10958904109589 IBV=1m BV=59.7 CJO=431.42p)
.ends DO-214AA_824520511
*******
.subckt DO-214AA_824520541 1 2
D1 1 2 DTVS
Rleak 1 2 54Meg
.MODEL DTVS D (IS=0.00001 N=1.5 RS=3.47101449275362 IBV=1m BV=63.15 CJO=432.78p)
.ends DO-214AA_824520541
*******
.subckt DO-214AA_824520581 1 2
D1 1 2 DTVS
Rleak 1 2 58Meg
.MODEL DTVS D (IS=0.00001 N=1.5 RS=3.96923076923077 IBV=1m BV=67.8 CJO=369.03p)
.ends DO-214AA_824520581
*******
.subckt DO-214AA_824520600 1 2
D1 1 2 DTVS
Rleak 1 2 0.0075Meg
.MODEL DTVS D (IS=0.00001 N=1.5 RS=5.62607204116638E-02 IBV=10m BV=7.02 CJO=4299.44p)
.ends DO-214AA_824520600
*******
.subckt DO-214AA_824520601 1 2
D1 1 2 DTVS
Rleak 1 2 60Meg
.MODEL DTVS D (IS=0.00001 N=1.5 RS=4.29032258064516 IBV=1m BV=70.2 CJO=359.72p)
.ends DO-214AA_824520601
*******
.subckt DO-214AA_824520641 1 2
D1 1 2 DTVS
Rleak 1 2 64Meg
.MODEL DTVS D (IS=0.00001 N=1.5 RS=4.77118644067797 IBV=1m BV=74.85 CJO=338.46p)
.ends DO-214AA_824520641
*******
.subckt DO-214AA_824520650 1 2
D1 1 2 DTVS
Rleak 1 2 0.013Meg
.MODEL DTVS D (IS=0.00001 N=1.5 RS=6.71641791044776E-02 IBV=10m BV=7.6 CJO=4053.06p)
.ends DO-214AA_824520650
*******
.subckt DO-214AA_824520700 1 2
D1 1 2 DTVS
Rleak 1 2 0.035Meg
.MODEL DTVS D (IS=0.00001 N=1.5 RS=0.0762 IBV=10m BV=8.19 CJO=3586.68p)
.ends DO-214AA_824520700
*******
.subckt DO-214AA_824520701 1 2
D1 1 2 DTVS
Rleak 1 2 70Meg
.MODEL DTVS D (IS=0.00001 N=1.5 RS=5.86792452830189 IBV=1m BV=81.9 CJO=316.78p)
.ends DO-214AA_824520701
*******
.subckt DO-214AA_824520750 1 2
D1 1 2 DTVS
Rleak 1 2 0.075Meg
.MODEL DTVS D (IS=0.00001 N=1.5 RS=8.86266094420601E-02 IBV=1m BV=8.77 CJO=3297.89p)
.ends DO-214AA_824520750
*******
.subckt DO-214AA_824520751 1 2
D1 1 2 DTVS
Rleak 1 2 75Meg
.MODEL DTVS D (IS=0.00001 N=1.5 RS=6.66 IBV=1m BV=87.7 CJO=328.49p)
.ends DO-214AA_824520751
*******
.subckt DO-214AA_824520781 1 2
D1 1 2 DTVS
Rleak 1 2 78Meg
.MODEL DTVS D (IS=0.00001 N=1.5 RS=7.23958333333333 IBV=1m BV=91.25 CJO=301p)
.ends DO-214AA_824520781
*******
.subckt DO-214AA_824520800 1 2
D1 1 2 DTVS
Rleak 1 2 0.16Meg
.MODEL DTVS D (IS=0.00001 N=1.5 RS=9.59276018099547E-02 IBV=1m BV=9.36 CJO=3301.86p)
.ends DO-214AA_824520800
*******
.subckt DO-214AA_824520850 1 2
D1 1 2 DTVS
Rleak 1 2 0.425Meg
.MODEL DTVS D (IS=0.00001 N=1.5 RS=0.107434052757794 IBV=1m BV=9.92 CJO=2972.93p)
.ends DO-214AA_824520850
*******
.subckt DO-214AA_824520851 1 2
D1 1 2 DTVS
Rleak 1 2 85Meg
.MODEL DTVS D (IS=0.00001 N=1.5 RS=8.59090909090909 IBV=1m BV=99.2 CJO=294.13p)
.ends DO-214AA_824520851
*******
.subckt DO-214AA_824520900 1 2
D1 1 2 DTVS
Rleak 1 2 0.9Meg
.MODEL DTVS D (IS=0.00001 N=1.5 RS=0.124358974358974 IBV=1m BV=10.55 CJO=2940.91p)
.ends DO-214AA_824520900
*******
.subckt DO-214AA_824520901 1 2
D1 1 2 DTVS
Rleak 1 2 90Meg
.MODEL DTVS D (IS=0.00001 N=1.5 RS=9.87804878048781 IBV=1m BV=105.5 CJO=273.54p)
.ends DO-214AA_824520901
*******
.subckt DO-214AB_824540101 1 2
D1 1 2 DTVS
Rleak 1 2 2Meg
.MODEL DTVS D (IS=0.00001 N=1.5 RS=6.00226500566252E-02 IBV=1m BV=11.7 CJO=5699.53p)
.ends DO-214AB_824540101
*******
.subckt DO-214AB_824540102 1 2
D1 1 2 DTVS
Rleak 1 2 100Meg
.MODEL DTVS D (IS=0.00001 N=1.5 RS=4.83870967741935 IBV=1m BV=117 CJO=777.52p)
.ends DO-214AB_824540102
*******
.subckt DO-214AB_824540111 1 2
D1 1 2 DTVS
Rleak 1 2 11Meg
.MODEL DTVS D (IS=0.00001 N=1.5 RS=6.48484848484848E-02 IBV=1m BV=12.85 CJO=5537.27p)
.ends DO-214AB_824540111
*******
.subckt DO-214AB_824540121 1 2
D1 1 2 DTVS
Rleak 1 2 12Meg
.MODEL DTVS D (IS=0.00001 N=1.5 RS=7.82493368700265E-02 IBV=1m BV=14 CJO=5078.54p)
.ends DO-214AB_824540121
*******
.subckt DO-214AB_824540131 1 2
D1 1 2 DTVS
Rleak 1 2 13Meg
.MODEL DTVS D (IS=0.00001 N=1.5 RS=0.090974212034384 IBV=1m BV=15.15 CJO=5242.46p)
.ends DO-214AB_824540131
*******
.subckt DO-214AB_824540141 1 2
D1 1 2 DTVS
Rleak 1 2 14Meg
.MODEL DTVS D (IS=0.00001 N=1.5 RS=0.105100463678516 IBV=1m BV=16.4 CJO=4067.92p)
.ends DO-214AB_824540141
*******
.subckt DO-214AB_824540151 1 2
D1 1 2 DTVS
Rleak 1 2 15Meg
.MODEL DTVS D (IS=0.00001 N=1.5 RS=0.110569105691057 IBV=1m BV=17.6 CJO=3778.48p)
.ends DO-214AB_824540151
*******
.subckt DO-214AB_824540161 1 2
D1 1 2 DTVS
Rleak 1 2 16Meg
.MODEL DTVS D (IS=0.00001 N=1.5 RS=0.125649913344887 IBV=1m BV=18.75 CJO=4178.14p)
.ends DO-214AB_824540161
*******
.subckt DO-214AB_824540162 1 2
D1 1 2 DTVS
Rleak 1 2 160Meg
.MODEL DTVS D (IS=0.00001 N=1.5 RS=12.3275862068966 IBV=1m BV=187.5 CJO=576.42p)
.ends DO-214AB_824540162
*******
.subckt DO-214AB_824540171 1 2
D1 1 2 DTVS
Rleak 1 2 17Meg
.MODEL DTVS D (IS=0.00001 N=1.5 RS=0.141544117647059 IBV=1m BV=19.9 CJO=3860.17p)
.ends DO-214AB_824540171
*******
.subckt DO-214AB_824540181 1 2
D1 1 2 DTVS
Rleak 1 2 18Meg
.MODEL DTVS D (IS=0.00001 N=1.5 RS=0.158560311284047 IBV=1m BV=21.05 CJO=3378.77p)
.ends DO-214AB_824540181
*******
.subckt DO-214AB_824540201 1 2
D1 1 2 DTVS
Rleak 1 2 20Meg
.MODEL DTVS D (IS=0.00001 N=1.5 RS=0.195464362850972 IBV=1m BV=23.35 CJO=3095.61p)
.ends DO-214AB_824540201
*******
.subckt DO-214AB_824540202 1 2
D1 1 2 DTVS
Rleak 1 2 200Meg
.MODEL DTVS D (IS=0.00001 N=1.5 RS=19.2391304347826 IBV=1m BV=235.5 CJO=487.18p)
.ends DO-214AB_824540202
*******
.subckt DO-214AB_824540221 1 2
D1 1 2 DTVS
Rleak 1 2 22Meg
.MODEL DTVS D (IS=0.00001 N=1.5 RS=0.232860520094563 IBV=1m BV=25.65 CJO=2596.69p)
.ends DO-214AB_824540221
*******
.subckt DO-214AB_824540222 1 2
D1 1 2 DTVS
Rleak 1 2 200Meg
.MODEL DTVS D (IS=0.00001 N=1.5 RS=23.0952380952381 IBV=1m BV=259 CJO=452.01p)
.ends DO-214AB_824540222
*******
.subckt DO-214AB_824540241 1 2
D1 1 2 DTVS
Rleak 1 2 24Meg
.MODEL DTVS D (IS=0.00001 N=1.5 RS=0.27979274611399 IBV=1m BV=28.1 CJO=2477.38p)
.ends DO-214AB_824540241
*******
.subckt DO-214AB_824540252 1 2
D1 1 2 DTVS
Rleak 1 2 200Meg
.MODEL DTVS D (IS=0.00001 N=1.5 RS=30 IBV=1m BV=294 CJO=388.67p)
.ends DO-214AB_824540252
*******
.subckt DO-214AB_824540261 1 2
D1 1 2 DTVS
Rleak 1 2 26Meg
.MODEL DTVS D (IS=0.00001 N=1.5 RS=0.327731092436975 IBV=1m BV=30.4 CJO=2380.31p)
.ends DO-214AB_824540261
*******
.subckt DO-214AB_824540281 1 2
D1 1 2 DTVS
Rleak 1 2 28Meg
.MODEL DTVS D (IS=0.00001 N=1.5 RS=0.382175226586103 IBV=1m BV=32.75 CJO=2213.21p)
.ends DO-214AB_824540281
*******
.subckt DO-214AB_824540301 1 2
D1 1 2 DTVS
Rleak 1 2 30Meg
.MODEL DTVS D (IS=0.00001 N=1.5 RS=0.430645161290323 IBV=1m BV=35.05 CJO=2125.7p)
.ends DO-214AB_824540301
*******
.subckt DO-214AB_824540302 1 2
D1 1 2 DTVS
Rleak 1 2 200Meg
.MODEL DTVS D (IS=0.00001 N=1.5 RS=42.9032258064516 IBV=1m BV=353 CJO=200.28p)
.ends DO-214AB_824540302
*******
.subckt DO-214AB_824540331 1 2
D1 1 2 DTVS
Rleak 1 2 33Meg
.MODEL DTVS D (IS=0.00001 N=1.5 RS=0.519503546099291 IBV=1m BV=38.65 CJO=1881.02p)
.ends DO-214AB_824540331
*******
.subckt DO-214AB_824540352 1 2
D1 1 2 DTVS
Rleak 1 2 200Meg
.MODEL DTVS D (IS=0.00001 N=1.5 RS=59.8076923076923 IBV=1m BV=411.5 CJO=173.78p)
.ends DO-214AB_824540352
*******
.subckt DO-214AB_824540361 1 2
D1 1 2 DTVS
Rleak 1 2 36Meg
.MODEL DTVS D (IS=0.00001 N=1.5 RS=0.617760617760618 IBV=1m BV=42.1 CJO=1818.1p)
.ends DO-214AB_824540361
*******
.subckt DO-214AB_824540401 1 2
D1 1 2 DTVS
Rleak 1 2 40Meg
.MODEL DTVS D (IS=0.00001 N=1.5 RS=0.761802575107296 IBV=1m BV=46.75 CJO=1603.36p)
.ends DO-214AB_824540401
*******
.subckt DO-214AB_824540402 1 2
D1 1 2 DTVS
Rleak 1 2 200Meg
.MODEL DTVS D (IS=0.00001 N=1.5 RS=77.1739130434783 IBV=1m BV=470.5 CJO=169.34p)
.ends DO-214AB_824540402
*******
.subckt DO-214AB_824540431 1 2
D1 1 2 DTVS
Rleak 1 2 43Meg
.MODEL DTVS D (IS=0.00001 N=1.5 RS=0.880184331797235 IBV=1m BV=50.3 CJO=1543.65p)
.ends DO-214AB_824540431
*******
.subckt DO-214AB_824540442 1 2
D1 1 2 DTVS
Rleak 1 2 200Meg
.MODEL DTVS D (IS=0.00001 N=1.5 RS=93.0952380952381 IBV=1m BV=517.5 CJO=141.41p)
.ends DO-214AB_824540442
*******
.subckt DO-214AB_824540451 1 2
D1 1 2 DTVS
Rleak 1 2 45Meg
.MODEL DTVS D (IS=0.00001 N=1.5 RS=0.973300970873787 IBV=1m BV=52.65 CJO=1337.42p)
.ends DO-214AB_824540451
*******
.subckt DO-214AB_824540481 1 2
D1 1 2 DTVS
Rleak 1 2 48Meg
.MODEL DTVS D (IS=0.00001 N=1.5 RS=1.0979381443299 IBV=1m BV=56.1 CJO=1341.76p)
.ends DO-214AB_824540481
*******
.subckt DO-214AB_824540500 1 2
D1 1 2 DTVS
Rleak 1 2 0.00625Meg
.MODEL DTVS D (IS=0.00001 N=1.5 RS=1.53374233128834E-02 IBV=10m BV=6.7 CJO=10187.37p)
.ends DO-214AB_824540500
*******
.subckt DO-214AB_824540511 1 2
D1 1 2 DTVS
Rleak 1 2 51Meg
.MODEL DTVS D (IS=0.00001 N=1.5 RS=1.24725274725275 IBV=1m BV=59.7 CJO=1409.34p)
.ends DO-214AB_824540511
*******
.subckt DO-214AB_824540541 1 2
D1 1 2 DTVS
Rleak 1 2 54Meg
.MODEL DTVS D (IS=0.00001 N=1.5 RS=1.38439306358381 IBV=1m BV=63.15 CJO=1191.57p)
.ends DO-214AB_824540541
*******
.subckt DO-214AB_824540581 1 2
D1 1 2 DTVS
Rleak 1 2 58Meg
.MODEL DTVS D (IS=0.00001 N=1.5 RS=1.60248447204969 IBV=1m BV=67.8 CJO=1181.47p)
.ends DO-214AB_824540581
*******
.subckt DO-214AB_824540600 1 2
D1 1 2 DTVS
Rleak 1 2 0.0075Meg
.MODEL DTVS D (IS=0.00001 N=1.5 RS=2.25120109814688E-02 IBV=10m BV=7.02 CJO=12441.5p)
.ends DO-214AB_824540600
*******
.subckt DO-214AB_824540601 1 2
D1 1 2 DTVS
Rleak 1 2 60Meg
.MODEL DTVS D (IS=0.00001 N=1.5 RS=1.71612903225806 IBV=1m BV=70.2 CJO=1115.93p)
.ends DO-214AB_824540601
*******
.subckt DO-214AB_824540641 1 2
D1 1 2 DTVS
Rleak 1 2 64Meg
.MODEL DTVS D (IS=0.00001 N=1.5 RS=1.92808219178082 IBV=1m BV=74.85 CJO=1074.2p)
.ends DO-214AB_824540641
*******
.subckt DO-214AB_824540650 1 2
D1 1 2 DTVS
Rleak 1 2 0.013Meg
.MODEL DTVS D (IS=0.00001 N=1.5 RS=0.026865671641791 IBV=10m BV=7.6 CJO=9543.7p)
.ends DO-214AB_824540650
*******
.subckt DO-214AB_824540700 1 2
D1 1 2 DTVS
Rleak 1 2 0.035Meg
.MODEL DTVS D (IS=0.00001 N=1.5 RS=0.03048 IBV=10m BV=8.19 CJO=7702.55p)
.ends DO-214AB_824540700
*******
.subckt DO-214AB_824540701 1 2
D1 1 2 DTVS
Rleak 1 2 70Meg
.MODEL DTVS D (IS=0.00001 N=1.5 RS=2.33834586466165 IBV=1m BV=81.9 CJO=977.69p)
.ends DO-214AB_824540701
*******
.subckt DO-214AB_824540750 1 2
D1 1 2 DTVS
Rleak 1 2 0.075Meg
.MODEL DTVS D (IS=0.00001 N=1.5 RS=3.55116079105761E-02 IBV=1m BV=8.77 CJO=8215.7p)
.ends DO-214AB_824540750
*******
.subckt DO-214AB_824540751 1 2
D1 1 2 DTVS
Rleak 1 2 75Meg
.MODEL DTVS D (IS=0.00001 N=1.5 RS=2.68548387096774 IBV=1m BV=87.7 CJO=899.81p)
.ends DO-214AB_824540751
*******
.subckt DO-214AB_824540781 1 2
D1 1 2 DTVS
Rleak 1 2 78Meg
.MODEL DTVS D (IS=0.00001 N=1.5 RS=2.92016806722689 IBV=1m BV=91.25 CJO=901.87p)
.ends DO-214AB_824540781
*******
.subckt DO-214AB_824540800 1 2
D1 1 2 DTVS
Rleak 1 2 0.16Meg
.MODEL DTVS D (IS=0.00001 N=1.5 RS=3.84406165004533E-02 IBV=1m BV=9.36 CJO=6833.4p)
.ends DO-214AB_824540800
*******
.subckt DO-214AB_824540850 1 2
D1 1 2 DTVS
Rleak 1 2 0.425Meg
.MODEL DTVS D (IS=0.00001 N=1.5 RS=4.29942418426104E-02 IBV=1m BV=9.92 CJO=6937.5p)
.ends DO-214AB_824540850
*******
.subckt DO-214AB_824540851 1 2
D1 1 2 DTVS
Rleak 1 2 85Meg
.MODEL DTVS D (IS=0.00001 N=1.5 RS=3.43636363636364 IBV=1m BV=99.2 CJO=878.81p)
.ends DO-214AB_824540851
*******
.subckt DO-214AB_824540900 1 2
D1 1 2 DTVS
Rleak 1 2 0.9Meg
.MODEL DTVS D (IS=0.00001 N=1.5 RS=4.97946611909651E-02 IBV=1m BV=10.55 CJO=7025.26p)
.ends DO-214AB_824540900
*******
.subckt DO-214AB_824540901 1 2
D1 1 2 DTVS
Rleak 1 2 90Meg
.MODEL DTVS D (IS=0.00001 N=1.5 RS=3.93203883495146 IBV=1m BV=105.5 CJO=819.01p)
.ends DO-214AB_824540901
*******
.subckt DO-214AB_824550101 1 2
D1 1 2 DTVS
Rleak 1 2 2Meg
.MODEL DTVS D (IS=0.00001 N=1.5 RS=0.030028328611898 IBV=1m BV=11.7 CJO=12674.57p)
.ends DO-214AB_824550101
*******
.subckt DO-214AB_824550102 1 2
D1 1 2 DTVS
Rleak 1 2 50Meg
.MODEL DTVS D (IS=0.00001 N=1.5 RS=2.43243243243243 IBV=1m BV=117 CJO=1537.27p)
.ends DO-214AB_824550102
*******
.subckt DO-214AB_824550111 1 2
D1 1 2 DTVS
Rleak 1 2 5.5Meg
.MODEL DTVS D (IS=0.00001 N=1.5 RS=3.24635922330097E-02 IBV=1m BV=12.85 CJO=10550.03p)
.ends DO-214AB_824550111
*******
.subckt DO-214AB_824550121 1 2
D1 1 2 DTVS
Rleak 1 2 6Meg
.MODEL DTVS D (IS=0.00001 N=1.5 RS=3.91246684350132E-02 IBV=1m BV=14 CJO=10816.4p)
.ends DO-214AB_824550121
*******
.subckt DO-214AB_824550131 1 2
D1 1 2 DTVS
Rleak 1 2 6.5Meg
.MODEL DTVS D (IS=0.00001 N=1.5 RS=4.55197132616487E-02 IBV=1m BV=15.15 CJO=10008.76p)
.ends DO-214AB_824550131
*******
.subckt DO-214AB_824550141 1 2
D1 1 2 DTVS
Rleak 1 2 7Meg
.MODEL DTVS D (IS=0.00001 N=1.5 RS=5.25908739365816E-02 IBV=1m BV=16.4 CJO=9655.17p)
.ends DO-214AB_824550141
*******
.subckt DO-214AB_824550151 1 2
D1 1 2 DTVS
Rleak 1 2 7.5Meg
.MODEL DTVS D (IS=0.00001 N=1.5 RS=5.52845528455284E-02 IBV=1m BV=17.6 CJO=8647.87p)
.ends DO-214AB_824550151
*******
.subckt DO-214AB_824550161 1 2
D1 1 2 DTVS
Rleak 1 2 8Meg
.MODEL DTVS D (IS=0.00001 N=1.5 RS=6.28249566724437E-02 IBV=1m BV=18.75 CJO=8210.8p)
.ends DO-214AB_824550161
*******
.subckt DO-214AB_824550162 1 2
D1 1 2 DTVS
Rleak 1 2 80Meg
.MODEL DTVS D (IS=0.00001 N=1.5 RS=6.16379310344828 IBV=1m BV=187.5 CJO=1413.4p)
.ends DO-214AB_824550162
*******
.subckt DO-214AB_824550171 1 2
D1 1 2 DTVS
Rleak 1 2 8.5Meg
.MODEL DTVS D (IS=0.00001 N=1.5 RS=7.08371665133395E-02 IBV=1m BV=19.9 CJO=8026.98p)
.ends DO-214AB_824550171
*******
.subckt DO-214AB_824550181 1 2
D1 1 2 DTVS
Rleak 1 2 9Meg
.MODEL DTVS D (IS=0.00001 N=1.5 RS=7.93573515092502E-02 IBV=1m BV=21.05 CJO=7450.79p)
.ends DO-214AB_824550181
*******
.subckt DO-214AB_824550201 1 2
D1 1 2 DTVS
Rleak 1 2 10Meg
.MODEL DTVS D (IS=0.00001 N=1.5 RS=9.77321814254859E-02 IBV=1m BV=23.35 CJO=7202.9p)
.ends DO-214AB_824550201
*******
.subckt DO-214AB_824550202 1 2
D1 1 2 DTVS
Rleak 1 2 100Meg
.MODEL DTVS D (IS=0.00001 N=1.5 RS=9.51612903225806 IBV=1m BV=235.5 CJO=1194.71p)
.ends DO-214AB_824550202
*******
.subckt DO-214AB_824550221 1 2
D1 1 2 DTVS
Rleak 1 2 11Meg
.MODEL DTVS D (IS=0.00001 N=1.5 RS=0.116568047337278 IBV=1m BV=25.65 CJO=5877.05p)
.ends DO-214AB_824550221
*******
.subckt DO-214AB_824550222 1 2
D1 1 2 DTVS
Rleak 1 2 100Meg
.MODEL DTVS D (IS=0.00001 N=1.5 RS=11.547619047619 IBV=1m BV=259 CJO=1090.5p)
.ends DO-214AB_824550222
*******
.subckt DO-214AB_824550241 1 2
D1 1 2 DTVS
Rleak 1 2 12Meg
.MODEL DTVS D (IS=0.00001 N=1.5 RS=0.140077821011673 IBV=1m BV=28.1 CJO=5541.61p)
.ends DO-214AB_824550241
*******
.subckt DO-214AB_824550261 1 2
D1 1 2 DTVS
Rleak 1 2 13Meg
.MODEL DTVS D (IS=0.00001 N=1.5 RS=0.164095371669004 IBV=1m BV=30.4 CJO=5135.37p)
.ends DO-214AB_824550261
*******
.subckt DO-214AB_824550281 1 2
D1 1 2 DTVS
Rleak 1 2 14Meg
.MODEL DTVS D (IS=0.00001 N=1.5 RS=0.191376701966717 IBV=1m BV=32.75 CJO=4694.63p)
.ends DO-214AB_824550281
*******
.subckt DO-214AB_824550301 1 2
D1 1 2 DTVS
Rleak 1 2 15Meg
.MODEL DTVS D (IS=0.00001 N=1.5 RS=0.215322580645161 IBV=1m BV=35.05 CJO=4423.55p)
.ends DO-214AB_824550301
*******
.subckt DO-214AB_824550331 1 2
D1 1 2 DTVS
Rleak 1 2 16.5Meg
.MODEL DTVS D (IS=0.00001 N=1.5 RS=0.260213143872114 IBV=1m BV=38.65 CJO=3693.2p)
.ends DO-214AB_824550331
*******
.subckt DO-214AB_824550361 1 2
D1 1 2 DTVS
Rleak 1 2 18Meg
.MODEL DTVS D (IS=0.00001 N=1.5 RS=0.310077519379845 IBV=1m BV=42.1 CJO=3711.9p)
.ends DO-214AB_824550361
*******
.subckt DO-214AB_824550401 1 2
D1 1 2 DTVS
Rleak 1 2 20Meg
.MODEL DTVS D (IS=0.00001 N=1.5 RS=0.381720430107527 IBV=1m BV=46.75 CJO=3460.19p)
.ends DO-214AB_824550401
*******
.subckt DO-214AB_824550431 1 2
D1 1 2 DTVS
Rleak 1 2 21.5Meg
.MODEL DTVS D (IS=0.00001 N=1.5 RS=0.44212962962963 IBV=1m BV=50.3 CJO=3001.52p)
.ends DO-214AB_824550431
*******
.subckt DO-214AB_824550451 1 2
D1 1 2 DTVS
Rleak 1 2 22.5Meg
.MODEL DTVS D (IS=0.00001 N=1.5 RS=0.485472154963681 IBV=1m BV=52.65 CJO=3128.48p)
.ends DO-214AB_824550451
*******
.subckt DO-214AB_824550481 1 2
D1 1 2 DTVS
Rleak 1 2 24Meg
.MODEL DTVS D (IS=0.00001 N=1.5 RS=0.548969072164949 IBV=1m BV=56.1 CJO=2787.89p)
.ends DO-214AB_824550481
*******
.subckt DO-214AB_824550500 1 2
D1 1 2 DTVS
Rleak 1 2 0.00625Meg
.MODEL DTVS D (IS=0.00001 N=1.5 RS=7.66636001226617E-03 IBV=10m BV=6.7 CJO=24790.7p)
.ends DO-214AB_824550500
*******
.subckt DO-214AB_824550511 1 2
D1 1 2 DTVS
Rleak 1 2 25.5Meg
.MODEL DTVS D (IS=0.00001 N=1.5 RS=0.623626373626374 IBV=1m BV=59.7 CJO=2629.46p)
.ends DO-214AB_824550511
*******
.subckt DO-214AB_824550541 1 2
D1 1 2 DTVS
Rleak 1 2 27Meg
.MODEL DTVS D (IS=0.00001 N=1.5 RS=0.696220930232558 IBV=1m BV=63.15 CJO=2583.56p)
.ends DO-214AB_824550541
*******
.subckt DO-214AB_824550581 1 2
D1 1 2 DTVS
Rleak 1 2 29Meg
.MODEL DTVS D (IS=0.00001 N=1.5 RS=0.803738317757009 IBV=1m BV=67.8 CJO=2456.84p)
.ends DO-214AB_824550581
*******
.subckt DO-214AB_824550600 1 2
D1 1 2 DTVS
Rleak 1 2 0.0075Meg
.MODEL DTVS D (IS=0.00001 N=1.5 RS=1.12598695502918E-02 IBV=10m BV=7.02 CJO=21840.73p)
.ends DO-214AB_824550600
*******
.subckt DO-214AB_824550601 1 2
D1 1 2 DTVS
Rleak 1 2 30Meg
.MODEL DTVS D (IS=0.00001 N=1.5 RS=0.858064516129032 IBV=1m BV=70.2 CJO=2314.78p)
.ends DO-214AB_824550601
*******
.subckt DO-214AB_824550641 1 2
D1 1 2 DTVS
Rleak 1 2 32Meg
.MODEL DTVS D (IS=0.00001 N=1.5 RS=0.967353951890034 IBV=1m BV=74.85 CJO=2216.14p)
.ends DO-214AB_824550641
*******
.subckt DO-214AB_824550650 1 2
D1 1 2 DTVS
Rleak 1 2 0.013Meg
.MODEL DTVS D (IS=0.00001 N=1.5 RS=0.013437849944009 IBV=10m BV=7.6 CJO=20932.87p)
.ends DO-214AB_824550650
*******
.subckt DO-214AB_824550700 1 2
D1 1 2 DTVS
Rleak 1 2 0.035Meg
.MODEL DTVS D (IS=0.00001 N=1.5 RS=0.01524 IBV=10m BV=8.19 CJO=17992p)
.ends DO-214AB_824550700
*******
.subckt DO-214AB_824550701 1 2
D1 1 2 DTVS
Rleak 1 2 35Meg
.MODEL DTVS D (IS=0.00001 N=1.5 RS=1.17358490566038 IBV=1m BV=81.9 CJO=2024.86p)
.ends DO-214AB_824550701
*******
.subckt DO-214AB_824550750 1 2
D1 1 2 DTVS
Rleak 1 2 0.075Meg
.MODEL DTVS D (IS=0.00001 N=1.5 RS=1.77558039552881E-02 IBV=1m BV=8.77 CJO=16969.83p)
.ends DO-214AB_824550750
*******
.subckt DO-214AB_824550751 1 2
D1 1 2 DTVS
Rleak 1 2 37.5Meg
.MODEL DTVS D (IS=0.00001 N=1.5 RS=1.34274193548387 IBV=1m BV=87.7 CJO=2022.58p)
.ends DO-214AB_824550751
*******
.subckt DO-214AB_824550781 1 2
D1 1 2 DTVS
Rleak 1 2 39Meg
.MODEL DTVS D (IS=0.00001 N=1.5 RS=1.46008403361345 IBV=1m BV=91.25 CJO=1829.38p)
.ends DO-214AB_824550781
*******
.subckt DO-214AB_824550800 1 2
D1 1 2 DTVS
Rleak 1 2 0.16Meg
.MODEL DTVS D (IS=0.00001 N=1.5 RS=1.92203082502267E-02 IBV=1m BV=9.36 CJO=15794.9p)
.ends DO-214AB_824550800
*******
.subckt DO-214AB_824550850 1 2
D1 1 2 DTVS
Rleak 1 2 0.425Meg
.MODEL DTVS D (IS=0.00001 N=1.5 RS=2.15074411905905E-02 IBV=1m BV=9.92 CJO=15291.9p)
.ends DO-214AB_824550850
*******
.subckt DO-214AB_824550851 1 2
D1 1 2 DTVS
Rleak 1 2 42.5Meg
.MODEL DTVS D (IS=0.00001 N=1.5 RS=1.72602739726027 IBV=1m BV=99.2 CJO=1775.29p)
.ends DO-214AB_824550851
*******
.subckt DO-214AB_824550900 1 2
D1 1 2 DTVS
Rleak 1 2 0.9Meg
.MODEL DTVS D (IS=0.00001 N=1.5 RS=2.48973305954825E-02 IBV=1m BV=10.55 CJO=12795.63p)
.ends DO-214AB_824550900
*******
.subckt DO-214AB_824550901 1 2
D1 1 2 DTVS
Rleak 1 2 45Meg
.MODEL DTVS D (IS=0.00001 N=1.5 RS=1.97560975609756 IBV=1m BV=105.5 CJO=1570.18p)
.ends DO-214AB_824550901
*******
.subckt DO-214AC_824500101 1 2
D1 1 2 DTVS
Rleak 1 2 2Meg
.MODEL DTVS D (IS=0.00001 N=1.5 RS=0.225531914893617 IBV=1m BV=11.7 CJO=1118.33p)
.ends DO-214AC_824500101
*******
.subckt DO-214AC_824500102 1 2
D1 1 2 DTVS
Rleak 1 2 100Meg
.MODEL DTVS D (IS=0.00001 N=1.5 RS=18 IBV=1m BV=117 CJO=149.41p)
.ends DO-214AC_824500102
*******
.subckt DO-214AC_824500111 1 2
D1 1 2 DTVS
Rleak 1 2 11Meg
.MODEL DTVS D (IS=0.00001 N=1.5 RS=0.243181818181818 IBV=1m BV=12.85 CJO=1100.44p)
.ends DO-214AC_824500111
*******
.subckt DO-214AC_824500121 1 2
D1 1 2 DTVS
Rleak 1 2 12Meg
.MODEL DTVS D (IS=0.00001 N=1.5 RS=0.293532338308458 IBV=1m BV=14 CJO=994.9p)
.ends DO-214AC_824500121
*******
.subckt DO-214AC_824500131 1 2
D1 1 2 DTVS
Rleak 1 2 13Meg
.MODEL DTVS D (IS=0.00001 N=1.5 RS=0.341397849462366 IBV=1m BV=15.15 CJO=1016.75p)
.ends DO-214AC_824500131
*******
.subckt DO-214AC_824500141 1 2
D1 1 2 DTVS
Rleak 1 2 14Meg
.MODEL DTVS D (IS=0.00001 N=1.5 RS=0.395348837209302 IBV=1m BV=16.4 CJO=898.73p)
.ends DO-214AC_824500141
*******
.subckt DO-214AC_824500151 1 2
D1 1 2 DTVS
Rleak 1 2 15Meg
.MODEL DTVS D (IS=0.00001 N=1.5 RS=0.414634146341463 IBV=1m BV=17.6 CJO=928.79p)
.ends DO-214AC_824500151
*******
.subckt DO-214AC_824500161 1 2
D1 1 2 DTVS
Rleak 1 2 16Meg
.MODEL DTVS D (IS=0.00001 N=1.5 RS=0.470779220779221 IBV=1m BV=18.75 CJO=859.24p)
.ends DO-214AC_824500161
*******
.subckt DO-214AC_824500162 1 2
D1 1 2 DTVS
Rleak 1 2 160Meg
.MODEL DTVS D (IS=0.00001 N=1.5 RS=47.6666666666667 IBV=1m BV=187.5 CJO=101.61p)
.ends DO-214AC_824500162
*******
.subckt DO-214AC_824500171 1 2
D1 1 2 DTVS
Rleak 1 2 17Meg
.MODEL DTVS D (IS=0.00001 N=1.5 RS=0.531034482758621 IBV=1m BV=19.9 CJO=824.39p)
.ends DO-214AC_824500171
*******
.subckt DO-214AC_824500181 1 2
D1 1 2 DTVS
Rleak 1 2 18Meg
.MODEL DTVS D (IS=0.00001 N=1.5 RS=0.594890510948905 IBV=1m BV=21.05 CJO=765.8p)
.ends DO-214AC_824500181
*******
.subckt DO-214AC_824500201 1 2
D1 1 2 DTVS
Rleak 1 2 20Meg
.MODEL DTVS D (IS=0.00001 N=1.5 RS=0.735772357723577 IBV=1m BV=23.35 CJO=644.28p)
.ends DO-214AC_824500201
*******
.subckt DO-214AC_824500202 1 2
D1 1 2 DTVS
Rleak 1 2 200Meg
.MODEL DTVS D (IS=0.00001 N=1.5 RS=73.75 IBV=1m BV=235.5 CJO=102.67p)
.ends DO-214AC_824500202
*******
.subckt DO-214AC_824500221 1 2
D1 1 2 DTVS
Rleak 1 2 22Meg
.MODEL DTVS D (IS=0.00001 N=1.5 RS=0.871681415929204 IBV=1m BV=25.65 CJO=628.05p)
.ends DO-214AC_824500221
*******
.subckt DO-214AC_824500222 1 2
D1 1 2 DTVS
Rleak 1 2 200Meg
.MODEL DTVS D (IS=0.00001 N=1.5 RS=88.1818181818182 IBV=1m BV=259 CJO=107.84p)
.ends DO-214AC_824500222
*******
.subckt DO-214AC_824500241 1 2
D1 1 2 DTVS
Rleak 1 2 24Meg
.MODEL DTVS D (IS=0.00001 N=1.5 RS=1.04854368932039 IBV=1m BV=28.1 CJO=569.12p)
.ends DO-214AC_824500241
*******
.subckt DO-214AC_824500252 1 2
D1 1 2 DTVS
Rleak 1 2 200Meg
.MODEL DTVS D (IS=0.00001 N=1.5 RS=111 IBV=1m BV=294 CJO=55.97p)
.ends DO-214AC_824500252
*******
.subckt DO-214AC_824500261 1 2
D1 1 2 DTVS
Rleak 1 2 26Meg
.MODEL DTVS D (IS=0.00001 N=1.5 RS=1.23157894736842 IBV=1m BV=30.4 CJO=517.76p)
.ends DO-214AC_824500261
*******
.subckt DO-214AC_824500281 1 2
D1 1 2 DTVS
Rleak 1 2 28Meg
.MODEL DTVS D (IS=0.00001 N=1.5 RS=1.4375 IBV=1m BV=32.75 CJO=462.07p)
.ends DO-214AC_824500281
*******
.subckt DO-214AC_824500301 1 2
D1 1 2 DTVS
Rleak 1 2 30Meg
.MODEL DTVS D (IS=0.00001 N=1.5 RS=1.60843373493976 IBV=1m BV=35.05 CJO=467.82p)
.ends DO-214AC_824500301
*******
.subckt DO-214AC_824500302 1 2
D1 1 2 DTVS
Rleak 1 2 200Meg
.MODEL DTVS D (IS=0.00001 N=1.5 RS=166.25 IBV=1m BV=353 CJO=52.32p)
.ends DO-214AC_824500302
*******
.subckt DO-214AC_824500331 1 2
D1 1 2 DTVS
Rleak 1 2 33Meg
.MODEL DTVS D (IS=0.00001 N=1.5 RS=1.95333333333333 IBV=1m BV=38.65 CJO=460.72p)
.ends DO-214AC_824500331
*******
.subckt DO-214AC_824500352 1 2
D1 1 2 DTVS
Rleak 1 2 200Meg
.MODEL DTVS D (IS=0.00001 N=1.5 RS=222.142857142857 IBV=1m BV=411.5 CJO=44.21p)
.ends DO-214AC_824500352
*******
.subckt DO-214AC_824500361 1 2
D1 1 2 DTVS
Rleak 1 2 36Meg
.MODEL DTVS D (IS=0.00001 N=1.5 RS=2.31884057971015 IBV=1m BV=42.1 CJO=389.09p)
.ends DO-214AC_824500361
*******
.subckt DO-214AC_824500401 1 2
D1 1 2 DTVS
Rleak 1 2 40Meg
.MODEL DTVS D (IS=0.00001 N=1.5 RS=2.86290322580645 IBV=1m BV=46.75 CJO=302.56p)
.ends DO-214AC_824500401
*******
.subckt DO-214AC_824500402 1 2
D1 1 2 DTVS
Rleak 1 2 200Meg
.MODEL DTVS D (IS=0.00001 N=1.5 RS=295.833333333333 IBV=1m BV=470.5 CJO=43.08p)
.ends DO-214AC_824500402
*******
.subckt DO-214AC_824500431 1 2
D1 1 2 DTVS
Rleak 1 2 43Meg
.MODEL DTVS D (IS=0.00001 N=1.5 RS=3.29310344827586 IBV=1m BV=50.3 CJO=280.34p)
.ends DO-214AC_824500431
*******