**************************************************
* Manufacturer:           Würth Elektronik 
* Kinds:                  ESD Suppressor
* Matchcode:              WE-VE  
* Library Type:           LTspice
* Version:                rev25a
* Created/modified by:    Ella      
* Date and Time:          2025-02-26
* Team:                   eiSos EDA Service  
* Contact:                libraries@we-online.com
* The models were generated by Würth Elektronik in cooperation with Graz University of Technology - Institute of Electronics
**************************************************
* Copyright(C) 2025 Würth Elektronik eiSos GmbH & Co. KG
* All Rights Reserved.
**************************************************
* Disclaimer: While Würth Elektronik eiSos has made every reasonable effort to ensure the accuracy
* of the simulation models provided, Würth Elektronik eiSos does not guarantee the exemption of error on
* the simulation models, nor does Würth Elektronik eiSos guarantee that the simulation model is current.
* Würth Elektronik eiSos reserves the right to make any adjustments at any time without notice.
* Würth Elektronik eiSos expressly disclaims all implied warranties regarding this simulation model.
**************************************************
.subckt 0402_82357050050 Anode Cathode
L1 Anode N001 0.51n
C1 N001 N002 6p
R1 N002 Cathode 1.87
R2 N001 Cathode 1e7
D1 N001 Positive idealD
D2 N006 Cathode mainIV
F1 0 N011 V2 +1
R3 N011 0 1e3
V2 Positive N003 0
S1 N004 N003 SBCM_C 0 sbcmSW
V3 SBCM_C N011 25
C2 N011 0 1000p
D3 N011 N017 idealD
D4 N015 N011 idealD
R4 N021 0 50
R5 N015 0 50
F2 0 N012 V4 +1
R6 N012 0 1e3
V4 N004 N005 0
S2 N006 N005 CM_C 0 cmSW
V5 CM_C N012 1.5
C3 N012 0 1950n
D5 N012 N018 idealD
D6 P001 N012 idealD
R7 N022 0 50
R8 P001 0 50
D7 N006 Cathode mainIV1
V6 N017 N021 100
V7 N018 N022 100
R9 N011 0 1e9
R10 N012 0 1e6
D8 Negative N001 idealD
D9 Cathode N010 mainIV
F3 0 N013 V8 -1
R15 N013 0 1e3
V8 Negative N007 0
S3 N008 N007 SBCM_C_N 0 sbcmSW
V9 SBCM_C_N N013 25
C5 N013 0 1000p
D10 N013 N019 idealD
D11 N016 N013 idealD
R16 N023 0 50
R17 N016 0 50
F4 0 N014 V10 -1
R18 N014 0 1e3
V10 N008 N009 0
S4 N010 N009 CM_C_N 0 cmSW
V11 CM_C_N N014 1.5
C6 N014 0 1950n
D12 N014 N020 idealD
D13 P002 N014 idealD
R19 N024 0 50
R20 P002 0 50
D14 Cathode N010 mainIV1
V12 N019 N023 100
V13 N020 N024 100
R21 N013 0 1e6
R22 N014 0 1e9
D15 N006 Cathode mainIV2
D16 N006 Cathode mainIV3
D17 Cathode N010 mainIV2
D18 Cathode N010 mainIV3
.model D D
.model idealD D(Is=1e-14 N=0.1 Rs=0.001 )
.model mainIV D(Is=8.0e-16 N=58.27 Rs=22.5055 )
.model sbcmSW SW(Ron=0.001 Roff=20 Von=100 Voff=0)
.model cmSW SW(Ron=0.001 Roff=60 Von=4 Voff=0)
.model mainIV1 D(Is=8.8e-16 N=84.16 Rs=11.0045)
.model mainIV2 D(Is=4.8e-16 N=110.45 Rs=7.8022)
.model mainIV3 D(Is=1e-20 N=123.58 Rs=9.0055)
*.ic v(snap_c)=0
*.ic v(snap_c_N)=0
.ends 0402_82357050050
******
.subckt 0402_82357050100 Anode Cathode
L1 Anode N001 0.63n
C1 N001 N002 10.1p
R1 N002 Cathode 1.99
R2 N001 Cathode 1e7
D1 N001 Positive idealD
D2 N006 Cathode mainIV
F1 0 N011 V2 +1
R3 N011 0 1e3
V2 Positive N003 0
S1 N004 N003 SBCM_C 0 sbcmSW
V3 SBCM_C N011 7.5
C2 N011 0 900p
D3 N011 N017 idealD
D4 N015 N011 idealD
R4 N021 0 50
R5 N015 0 50
F2 0 N012 V4 +1
R6 N012 0 1e3
V4 N004 N005 0
S2 N006 N005 CM_C 0 cmSW
V5 CM_C N012 1.375
C3 N012 0 1100n
D5 N012 N018 idealD
D6 P001 N012 idealD
R7 N022 0 50
R8 P001 0 50
D7 N006 Cathode mainIV1
V6 N017 N021 100
V7 N018 N022 100
R9 N011 0 1e9
R10 N012 0 1e6
D8 Negative N001 idealD
D9 Cathode N010 mainIV
F3 0 N013 V8 -1
R15 N013 0 1e3
V8 Negative N007 0
S3 N008 N007 SBCM_C_N 0 sbcmSW
V9 SBCM_C_N N013 7.5
C5 N013 0 900p
D10 N013 N019 idealD
D11 N016 N013 idealD
R16 N023 0 50
R17 N016 0 50
F4 0 N014 V10 -1
R18 N014 0 1e3
V10 N008 N009 0
S4 N010 N009 CM_C_N 0 cmSW
V11 CM_C_N N014 1.375
C6 N014 0 1100n
D12 N014 N020 idealD
D13 P002 N014 idealD
R19 N024 0 50
R20 P002 0 50
D14 Cathode N010 mainIV1
V12 N019 N023 100
V13 N020 N024 100
R21 N013 0 1e6
R22 N014 0 1e9
D15 N006 Cathode mainIV2
D17 Cathode N010 mainIV2
.model D D
.model idealD D(Is=1e-14 N=0.1 Rs=0.001 )
.model mainIV D(Is=1.8e-16 N=55.51 Rs=12.5075 )
.model sbcmSW SW(Ron=0.001 Roff=45 Von=30 Voff=0)
.model cmSW SW(Ron=0.001 Roff=70 Von=3.5 Voff=0)
.model mainIV1 D(Is=4.6e-16 N=77.23 Rs=11.0045)
.model mainIV2 D(Is=4.8e-16 N=170.15 Rs=2.2579)
.ic v(snap_c)=0
.ic v(snap_c_N)=0
.ends 0402_82357050100
******
.subckt 0402_82357050220 Anode Cathode
L1 Anode N001 0.07n
C1 N001 N002 21p
R1 N002 Cathode 1.87
R2 N001 Cathode 1e7
D1 N001 Positive idealD
D2 N006 Cathode mainIV
F1 0 N011 V2 +1
R3 N011 0 1e3
V2 Positive N003 0
S1 N004 N003 SBCM_C 0 sbcmSW
V3 SBCM_C N011 10
C2 N011 0 800p
D3 N011 N017 idealD
D4 N015 N011 idealD
R4 N021 0 50
R5 N015 0 50
F2 0 N012 V4 +1
R6 N012 0 1e3
V4 N004 N005 0
S2 N006 N005 CM_C 0 cmSW
V5 CM_C N012 1.5
C3 N012 0 600n
D5 N012 N018 idealD
D6 P001 N012 idealD
R7 N022 0 50
R8 P001 0 50
D7 N006 Cathode mainIV1
V6 N017 N021 100
V7 N018 N022 100
R9 N011 0 1e9
R10 N012 0 1e6
D8 Negative N001 idealD
D9 Cathode N010 mainIV
F3 0 N013 V8 -1
R15 N013 0 1e3
V8 Negative N007 0
S3 N008 N007 SBCM_C_N 0 sbcmSW
V9 SBCM_C_N N013 10
C5 N013 0 800p
D10 N013 N019 idealD
D11 N016 N013 idealD
R16 N023 0 50
R17 N016 0 50
F4 0 N014 V10 -1
R18 N014 0 1e3
V10 N008 N009 0
S4 N010 N009 CM_C_N 0 cmSW
V11 CM_C_N N014 1.5
C6 N014 0 600n
D12 N014 N020 idealD
D13 P002 N014 idealD
R19 N024 0 50
R20 P002 0 50
D14 Cathode N010 mainIV1
V12 N019 N023 100
V13 N020 N024 100
R21 N013 0 1e6
R22 N014 0 1e9
D15 N006 Cathode mainIV2
D16 N006 Cathode mainIV3
D17 Cathode N010 mainIV2
D18 Cathode N010 mainIV3
D19 N006 Cathode mainIV4
D20 Cathode N010 mainIV4
.model D D
.model idealD D(Is=1e-14 N=0.1 Rs=0.001 )
.model mainIV D(Is=1.46e-15 N=47 Rs=37 )
.model sbcmSW SW(Ron=0.001 Roff=50 Von=40 Voff=0)
.model cmSW SW(Ron=0.001 Roff=20 Von=4 Voff=0)
.model mainIV1 D(Is=6e-16 N=42.86 Rs=7.57)
.model mainIV2 D(Is=5e-16 N=51.083 Rs=4.7)
.model mainIV3 D(Is=1e-20 N=53.8 Rs=2.83)
.ic v(snap_c)=0
.ic v(snap_c_N)=0
.model mainIV4 D(Is=1e-20 N=72 Rs=2.04)
.ends 0402_82357050220
******
.subckt 0402_82357050330 Anode Cathode
L1 Anode N001 0.33n
C1 N001 N002 29.5p
R1 N002 Cathode 0.783
R2 N001 Cathode 1e7
D1 N001 Positive idealD
D2 N006 Cathode mainIV
F1 0 N011 V2 +1
R3 N011 0 1e3
V2 Positive N003 0
S1 N004 N003 SBCM_C 0 sbcmSW
V3 SBCM_C N011 2.5
C2 N011 0 20n
D3 N011 N017 idealD
D4 N015 N011 idealD
R4 N021 0 50
R5 N015 0 50
F2 0 N012 V4 +1
R6 N012 0 1e3
V4 N004 N005 0
S2 N006 N005 CM_C 0 cmSW
V5 CM_C N012 2
C3 N012 0 400n
D5 N012 N018 idealD
D6 P001 N012 idealD
R7 N022 0 50
R8 P001 0 50
D7 N006 Cathode mainIV1
V6 N017 N021 100
V7 N018 N022 100
R9 N011 0 1e9
R10 N012 0 1e6
D8 Negative N001 idealD
D9 Cathode N010 mainIV
F3 0 N013 V8 -1
R15 N013 0 1e3
V8 Negative N007 0
S3 N008 N007 SBCM_C_N 0 sbcmSW
V9 SBCM_C_N N013 2.5
C5 N013 0 20n
D10 N013 N019 idealD
D11 N016 N013 idealD
R16 N023 0 50
R17 N016 0 50
F4 0 N014 V10 -1
R18 N014 0 1e3
V10 N008 N009 0
S4 N010 N009 CM_C_N 0 cmSW
V11 CM_C_N N014 2
C9 N014 0 400n
D12 N014 N020 idealD
D13 P002 N014 idealD
R19 N024 0 50
R20 P002 0 50
D14 Cathode N010 mainIV1
V12 N019 N023 100
V13 N020 N024 100
R21 N013 0 1e6
R22 N014 0 1e9
D15 N006 Cathode mainIV2
D16 N006 Cathode mainIV3
D17 Cathode N010 mainIV2
D18 Cathode N010 mainIV3
D19 N006 Cathode mainIV4
D20 Cathode N010 mainIV4
.model D D
.model idealD D(Is=1e-14 N=0.1 Rs=0.001 )
.model mainIV D(Is=1.46e-15 N=33.89 Rs=37)
.model sbcmSW SW(Ron=0.001 Roff=5 Von=10 Voff=0)
.model cmSW SW(Ron=0.001 Roff=8 Von=6 Voff=0)
.model mainIV1 D(Is=6e-16 N=57.81 Rs=4.08)
.model mainIV2 D(Is=5e-16 N=66.077 Rs=3.41)
.model mainIV3 D(Is=1e-20 N=66 Rs=2.58)
.ic v(snap_c)=0
.ic v(snap_c_N)=0
.model mainIV4 D(Is=1e-20 N=77.7 Rs=3.1)
.ends 0402_82357050330
******
.subckt 0402_82357050560 Anode Cathode
L1 Anode N001 0.02n
C1 N001 N002 42p
R1 N002 Cathode 1.7
R2 N001 Cathode 1e7
D1 N001 Positive idealD
D2 N006 Cathode mainIV
F1 0 N011 V2 +1
R3 N011 0 1e3
V2 Positive N003 0
S1 N004 N003 SBCM_C 0 sbcmSW
V3 SBCM_C N011 12.5
C2 N011 0 600p
D3 N011 N017 idealD
D4 N015 N011 idealD
R4 N021 0 50
R5 N015 0 50
F2 0 N012 V4 +1
R6 N012 0 1e3
V4 N004 N005 0
S2 N006 N005 CM_C 0 cmSW
V5 CM_C N012 3
C3 N012 0 400n
D5 N012 N018 idealD
D6 P001 N012 idealD
R7 N022 0 50
R8 P001 0 50
D7 N006 Cathode mainIV1
V6 N017 N021 100
V7 N018 N022 100
R9 N011 0 1e9
R10 N012 0 1e6
D8 Negative N001 idealD
D9 Cathode N010 mainIV
F3 0 N013 V8 -1
R15 N013 0 1e3
V8 Negative N007 0
S3 N008 N007 SBCM_C_N 0 sbcmSW
V9 SBCM_C_N N013 12.5
C5 N013 0 600p
D10 N013 N019 idealD
D11 N016 N013 idealD
R16 N023 0 50
R17 N016 0 50
F4 0 N014 V10 -1
R18 N014 0 1e3
V10 N008 N009 0
S4 N010 N009 CM_C_N 0 cmSW
V11 CM_C_N N014 3
C6 N014 0 400n
D12 N014 N020 idealD
D13 P002 N014 idealD
R19 N024 0 50
R20 P002 0 50
D14 Cathode N010 mainIV1
V12 N019 N023 100
V13 N020 N024 100
R21 N013 0 1e6
R22 N014 0 1e9
D15 N006 Cathode mainIV2
D17 Cathode N010 mainIV2
.model D D
.model idealD D(Is=1e-14 N=0.1 Rs=0.001 )
.model mainIV D(Is=8.4e-16 N=37.57 Rs=3.503 )
.model sbcmSW SW(Ron=0.001 Roff=60 Von=50 Voff=0)
.model cmSW SW(Ron=0.001 Roff=5 Von=10 Voff=0)
.model mainIV1 D(Is=4.6e-16 N=72.1 Rs=2.2843)
.model mainIV2 D(Is=1.56e-15 N=92.8 Rs=0.5984)
.ic v(snap_c)=0
.ic v(snap_c_N)=0
.ends 0402_82357050560
******
.subckt 0402_82357120050 Anode Cathode
L1 Anode N001 0.54n
C1 N001 N002 2.75p
R1 N002 Cathode 3.526
R2 N001 Cathode 1e7
D1 N001 Positive idealD
D2 N006 Cathode mainIV
F1 0 N011 V2 +1
R3 N011 0 1e3
V2 Positive N003 0
S1 N004 N003 SBCM_C 0 sbcmSW
V3 SBCM_C N011 1.25
C2 N011 0 100p
D3 N011 N017 idealD
D4 N015 N011 idealD
R4 N021 0 50
R5 N015 0 50
F2 0 N012 V4 +1
R6 N012 0 1e3
V4 N004 N005 0
S2 N006 N005 CM_C 0 cmSW
V5 CM_C N012 2.25
C3 N012 0 400n
D5 N012 N018 idealD
D6 P001 N012 idealD
R7 N022 0 50
R8 P001 0 50
D7 N006 Cathode mainIV1
V6 N017 N021 100
V7 N018 N022 100
R9 N011 0 1e9
R10 N012 0 1e6
D8 Negative N001 idealD
D9 Cathode N010 mainIV
F3 0 N013 V8 -1
R15 N013 0 1e3
V8 Negative N007 0
S3 N008 N007 SBCM_C_N 0 sbcmSW
V9 SBCM_C_N N013 1.25
C5 N013 0 100p
D10 N013 N019 idealD
D11 N016 N013 idealD
R16 N023 0 50
R17 N016 0 50
F4 0 N014 V10 -1
R18 N014 0 1e3
V10 N008 N009 0
S4 N010 N009 CM_C_N 0 cmSW
V11 CM_C_N N014 2.25
C6 N014 0 400n
D12 N014 N020 idealD
D13 P002 N014 idealD
R19 N024 0 50
R20 P002 0 50
D14 Cathode N010 mainIV1
V12 N019 N023 100
V13 N020 N024 100
R21 N013 0 1e6
R22 N014 0 1e9
D15 N006 Cathode mainIV2
D16 N006 Cathode mainIV3
D17 Cathode N010 mainIV2
D18 Cathode N010 mainIV3
.model D D
.model idealD D(Is=1e-14 N=0.1 Rs=0.001 )
.model mainIV D(Is=9e-16 N=58.27 Rs=22.51 )
.model sbcmSW SW(Ron=0.001 Roff=5 Von=5 Voff=0)
.model cmSW SW(Ron=0.001 Roff=20 Von=7 Voff=0)
.model mainIV1 D(Is=9e-16 N=85.4 Rs=10.3)
.model mainIV2 D(Is=5e-16 N=122.1 Rs=9.57)
.model mainIV3 D(Is=1e-16 N=153 Rs=12.5)
.ic v(snap_c)=0
.ic v(snap_c_N)=0
.ends 0402_82357120050
******
.subckt 0402_82357120100 Anode Cathode
L1 Anode N001 0.4n
C1 N001 N002 10.8p
R1 N002 Cathode 1.18
R2 N001 Cathode 1e7
D1 N001 Positive idealD
D2 N006 Cathode mainIV
F1 0 N011 V2 +1
R3 N011 0 1e3
V2 Positive N003 0
S1 N004 N003 SBCM_C 0 sbcmSW
V3 SBCM_C N011 20
C2 N011 0 550p
D3 N011 N017 idealD
D4 N015 N011 idealD
R4 N021 0 50
R5 N015 0 50
F2 0 N012 V4 +1
R6 N012 0 1e3
V4 N004 N005 0
S2 N006 N005 CM_C 0 cmSW
V5 CM_C N012 1.625
C3 N012 0 800n
D5 N012 N018 idealD
D6 P001 N012 idealD
R7 N022 0 50
R8 P001 0 50
D7 N006 Cathode mainIV1
V6 N017 N021 100
V7 N018 N022 100
R9 N011 0 1e9
R10 N012 0 1e6
D8 Negative N001 idealD
D9 Cathode N010 mainIV
F3 0 N013 V8 -1
R15 N013 0 1e3
V8 Negative N007 0
S3 N008 N007 SBCM_C_N 0 sbcmSW
V9 SBCM_C_N N013 20
C5 N013 0 800p
D10 N013 N019 idealD
D11 N016 N013 idealD
R16 N023 0 50
R17 N016 0 50
F4 0 N014 V10 -1
R18 N014 0 1e3
V10 N008 N009 0
S4 N010 N009 CM_C_N 0 cmSW
V11 CM_C_N N014 1.625
C6 N014 0 800n
D12 N014 N020 idealD
D13 P002 N014 idealD
R19 N024 0 50
R20 P002 0 50
D14 Cathode N010 mainIV1
V12 N019 N023 100
V13 N020 N024 100
R21 N013 0 1e6
R22 N014 0 1e9
D15 N006 Cathode mainIV2
D16 N006 Cathode mainIV3
D17 Cathode N010 mainIV2
D18 Cathode N010 mainIV3
.model D D
.model idealD D(Is=1e-14 N=0.1 Rs=0.001 )
.model mainIV D(Is=8.4e-16 N=51.37 Rs=11.0078 )
.model sbcmSW SW(Ron=0.001 Roff=80 Von=80 Voff=0)
.model cmSW SW(Ron=0.001 Roff=20 Von=4.5 Voff=0)
.model mainIV1 D(Is=4.6e-16 N=64.36 Rs=6.6067)
.model mainIV2 D(Is=4.8e-16 N=86.57 Rs=5.005)
.model mainIV3 D(Is=1e-20 N=93.73 Rs=4.36)
.ic v(snap_c)=0
.ic v(snap_c_N)=0
.ends 0402_82357120100
******
.subckt 0402_82357120220 Anode Cathode
L1 Anode N001 0.06n
C1 N001 N002 23.8p
R1 N002 Cathode 1.94
R2 N001 Cathode 1e7
D1 N001 Positive idealD
D2 N006 Cathode mainIV
F1 0 N011 V2 +1
R3 N011 0 1e3
V2 Positive N003 0
S1 N004 N003 SBCM_C 0 sbcmSW
V3 SBCM_C N011 17.5
C2 N011 0 900p
D3 N011 N017 idealD
D4 N015 N011 idealD
R4 N021 0 50
R5 N015 0 50
F2 0 N012 V4 +1
R6 N012 0 1e3
V4 N004 N005 0
S2 N006 N005 CM_C 0 cmSW
V5 CM_C N012 1.25
C3 N012 0 920.77n
D5 N012 N018 idealD
D6 P001 N012 idealD
R7 N022 0 50
R8 P001 0 50
D7 N006 Cathode mainIV1
V6 N017 N021 100
V7 N018 N022 100
R9 N011 0 1e9
R10 N012 0 1e6
D8 Negative N001 idealD
D9 Cathode N010 mainIV
F3 0 N013 V8 -1
R15 N013 0 1e3
V8 Negative N007 0
S3 N008 N007 SBCM_C_N 0 sbcmSW
V9 SBCM_C_N N013 17.5
C5 N013 0 900p
D10 N013 N019 idealD
D11 N016 N013 idealD
R16 N023 0 50
R17 N016 0 50
F4 0 N014 V10 -1
R18 N014 0 1e3
V10 N008 N009 0
S4 N010 N009 CM_C_N 0 cmSW
V11 CM_C_N N014 1.25
C6 N014 0 920.77n
D12 N014 N020 idealD
D13 P002 N014 idealD
R19 N024 0 50
R20 P002 0 50
D14 Cathode N010 mainIV1
V12 N019 N023 100
V13 N020 N024 100
R21 N013 0 1e6
R22 N014 0 1e9
D15 N006 Cathode mainIV2
D16 N006 Cathode mainIV3
D17 Cathode N010 mainIV2
D18 Cathode N010 mainIV3
D19 N006 Cathode mainIV4
D20 Cathode N010 mainIV4
.model D D
.model idealD D(Is=1e-14 N=0.1 Rs=0.001 )
.model mainIV D(Is=8.0e-16 N=32.05 Rs=11.0078 )
.model sbcmSW SW(Ron=0.001 Roff=25 Von=70 Voff=0)
.model cmSW SW(Ron=0.001 Roff=30 Von=3 Voff=0)
.model mainIV1 D(Is=4.6e-16 N=39.7 Rs=5.22)
.model mainIV2 D(Is=4.8e-16 N=49.5 Rs=3.92)
.model mainIV3 D(Is=1e-20 N=49.5 Rs=4.36)
.ic v(snap_c)=0
.ic v(snap_c_N)=0
.model mainIV4 D(Is=1e-20 N=68 Rs=2.27)
.ends 0402_82357120220
******
.subckt 0402_82357240010 Anode Cathode
L1 Anode N001 0.604n
C1 N001 N002 0.9p
R1 N002 Cathode 6.48
R2 N001 Cathode 1e7
D1 N001 Positive idealD
D2 N006 Cathode mainIV
F1 0 N011 V2 +1
R3 N011 0 1e3
V2 Positive N003 0
S1 N004 N003 SBCM_C 0 sbcmSW
V3 SBCM_C N011 37.5
C2 N011 0 5000p
D3 N011 N017 idealD
D4 N015 N011 idealD
R4 N021 0 50
R5 N015 0 50
F2 0 N012 V4 +1
R6 N012 0 1e3
V4 N004 N005 0
S2 N006 N005 CM_C 0 cmSW
V5 CM_C N012 2.75
C3 N012 0 570n
D5 N012 N018 idealD
D6 P001 N012 idealD
R7 N022 0 50
R8 P001 0 50
D7 N006 Cathode mainIV1
V6 N017 N021 100
V7 N018 N022 100
R9 N011 0 1e9
R10 N012 0 1e6
D8 Negative N001 idealD
D9 Cathode N010 mainIV
F3 0 N013 V8 -1
R15 N013 0 1e3
V8 Negative N007 0
S3 N008 N007 SBCM_C_N 0 sbcmSW
V9 SBCM_C_N N013 37.5
C5 N013 0 5000p
D10 N013 N019 idealD
D11 N016 N013 idealD
R16 N023 0 50
R17 N016 0 50
F4 0 N014 V10 -1
R18 N014 0 1e3
V10 N008 N009 0
S4 N010 N009 CM_C_N 0 cmSW
V11 CM_C_N N014 2.75
C6 N014 0 570n
D12 N014 N020 idealD
D13 P002 N014 idealD
R19 N024 0 50
R20 P002 0 50
D14 Cathode N010 mainIV1
V12 N019 N023 100
V13 N020 N024 100
R21 N013 0 1e6
R22 N014 0 1e9
D15 N006 Cathode mainIV2
D16 N006 Cathode mainIV3
D17 Cathode N010 mainIV2
D18 Cathode N010 mainIV3
D19 N006 Cathode mainIV4
D20 Cathode N010 mainIV4
.model D D
.model idealD D(Is=1e-14 N=0.1 Rs=0.001 )
.model mainIV D(Is=8e-16 N=195 Rs=250 )
.model sbcmSW SW(Ron=0.001 Roff=30 Von=150 Voff=0)
.model cmSW SW(Ron=0.001 Roff=60 Von=9 Voff=0)
.model mainIV1 D(Is=8e-16 N=255 Rs=38)
.model mainIV2 D(Is=8e-16 N=327.5 Rs=40)
.model mainIV3 D(Is=1e-16 N=410 Rs=26)
.ic v(snap_c)=0
.ic v(snap_c_N)=0
.model mainIV4 D(Is=1e-16 N=600 Rs=18)
.ends 0402_82357240010
******
.subckt 0402_82357240030 Anode Cathode
L1 Anode N001 0.35n
C1 N001 N002 3.15p
R1 N002 Cathode 1.63
R2 N001 Cathode 1e7
D1 N001 Positive idealD
D2 N006 Cathode mainIV
F1 0 N011 V2 +1
R3 N011 0 1e3
V2 Positive N003 0
S1 N004 N003 SBCM_C 0 sbcmSW
V3 SBCM_C N011 14.25
C2 N011 0 1400p
D3 N011 N017 idealD
D4 N015 N011 idealD
R4 N021 0 50
R5 N015 0 50
F2 0 N012 V4 +1
R6 N012 0 1e3
V4 N004 N005 0
S2 N006 N005 CM_C 0 cmSW
V5 CM_C N012 2.25
C3 N012 0 400n
D5 N012 N018 idealD
D6 P001 N012 idealD
R7 N022 0 50
R8 P001 0 50
D7 N006 Cathode mainIV1
V6 N017 N021 100
V7 N018 N022 100
R9 N011 0 1e9
R10 N012 0 1e6
D8 Negative N001 idealD
D9 Cathode N010 mainIV
F3 0 N013 V8 -1
R15 N013 0 1e3
V8 Negative N007 0
S3 N008 N007 SBCM_C_N 0 sbcmSW
V9 SBCM_C_N N013 14.25
C5 N013 0 1400p
D10 N013 N019 idealD
D11 N016 N013 idealD
R16 N023 0 50
R17 N016 0 50
F4 0 N014 V10 -1
R18 N014 0 1e3
V10 N008 N009 0
S4 N010 N009 CM_C_N 0 cmSW
V11 CM_C_N N014 2.25
C6 N014 0 400n
D12 N014 N020 idealD
D13 P002 N014 idealD
R19 N024 0 50
R20 P002 0 50
D14 Cathode N010 mainIV1
V12 N019 N023 100
V13 N020 N024 100
R21 N013 0 1e6
R22 N014 0 1e9
D15 N006 Cathode mainIV2
D16 N006 Cathode mainIV3
D17 Cathode N010 mainIV2
D18 Cathode N010 mainIV3
.model D D
.model idealD D(Is=1e-14 N=0.1 Rs=0.001 )
.model mainIV D(Is=8.4e-16 N=209.09 Rs=18.5063 )
.model sbcmSW SW(Ron=0.001 Roff=170 Von=57 Voff=0)
.model cmSW SW(Ron=0.001 Roff=63 Von=7 Voff=0)
.model mainIV1 D(Is=4.6e-16 N=246.18 Rs=10.2049)
.model mainIV2 D(Is=4.8e-16 N=300.25 Rs=8.09)
.model mainIV3 D(Is=1e-20 N=304.24 Rs=12.87)
.ic v(snap_c)=0
.ic v(snap_c_N)=0
.ends 0402_82357240030
******
.subckt 0603_82356050050 Anode Cathode
L1 Anode N001 0.571n
C1 N001 N002 7.5p
R1 N002 Cathode 2.09
R2 N001 Cathode 1e7
D1 N001 Positive idealD
D2 N006 Cathode mainIV
F1 0 N011 V2 +1
R3 N011 0 1e3
V2 Positive N003 0
S1 N004 N003 SBCM_C 0 sbcmSW
V3 SBCM_C N011 6.25
C2 N011 0 2000p
D3 N011 N017 idealD
D4 N015 N011 idealD
R4 N021 0 50
R5 N015 0 50
F2 0 N012 V4 +1
R6 N012 0 1e3
V4 N004 N005 0
S2 N006 N005 CM_C 0 cmSW
V5 CM_C N012 2
C3 N012 0 880n
D5 N012 N018 idealD
D6 P001 N012 idealD
R7 N022 0 50
R8 P001 0 50
D7 N006 Cathode mainIV1
V6 N017 N021 100
V7 N018 N022 100
R9 N011 0 1e9
R10 N012 0 1e6
D8 Negative N001 idealD
D9 Cathode N010 mainIV
F3 0 N013 V8 -1
R15 N013 0 1e3
V8 Negative N007 0
S3 N008 N007 SBCM_C_N 0 sbcmSW
V9 SBCM_C_N N013 6.25
C5 N013 0 2000p
D10 N013 N019 idealD
D11 N016 N013 idealD
R16 N023 0 50
R17 N016 0 50
F4 0 N014 V10 -1
R18 N014 0 1e3
V10 N008 N009 0
S4 N010 N009 CM_C_N 0 cmSW
V11 CM_C_N N014 2
C6 N014 0 880n
D12 N014 N020 idealD
D13 P002 N014 idealD
R19 N024 0 50
R20 P002 0 50
D14 Cathode N010 mainIV1
V12 N019 N023 100
V13 N020 N024 100
R21 N013 0 1e6
R22 N014 0 1e9
D15 N006 Cathode mainIV2
D16 N006 Cathode mainIV3
D17 Cathode N010 mainIV2
D18 Cathode N010 mainIV3
.model D D
.model idealD D(Is=1e-14 N=0.1 Rs=0.001 )
.model mainIV D(Is=8.4e-16 N=49.99 Rs=11.0078)
.model sbcmSW SW(Ron=0.001 Roff=35 Von=25 Voff=0)
.model cmSW SW(Ron=0.001 Roff=9 Von=6 Voff=0)
.model mainIV1 D(Is=4.6e-16 N=75.25 Rs=7.66)
.model mainIV2 D(Is=1.56e-15 N=112.44 Rs=9.65)
.model mainIV3 D(Is=1e-20 N=122.39 Rs=15.0025)
.ic v(snap_c)=0
.ic v(snap_c_N)=0
.ends 0603_82356050050
******
.subckt 0603_82356050100 Anode Cathode
L1 Anode N001 0.668n
C1 N001 N002 10.6p
R1 N002 Cathode 1.42
R2 N001 Cathode 1e7
D1 N001 Positive idealD
D2 N006 Cathode mainIV
F1 0 N011 V2 +1
R3 N011 0 1e3
V2 Positive N003 0
S1 N004 N003 SBCM_C 0 sbcmSW
V3 SBCM_C N011 10
C2 N011 0 1200p
D3 N011 N017 idealD
D4 N015 N011 idealD
R4 N021 0 50
R5 N015 0 50
F2 0 N012 V4 +1
R6 N012 0 1e3
V4 N004 N005 0
S2 N006 N005 CM_C 0 cmSW
V5 CM_C N012 2
C3 N012 0 600n
D5 N012 N018 idealD
D6 P001 N012 idealD
R7 N022 0 50
R8 P001 0 50
D7 N006 Cathode mainIV1
V6 N017 N021 100
V7 N018 N022 100
R9 N011 0 1e9
R10 N012 0 1e6
D8 Negative N001 idealD
D9 Cathode N010 mainIV
F3 0 N013 V8 -1
R15 N013 0 1e3
V8 Negative N007 0
S3 N008 N007 SBCM_C_N 0 sbcmSW
V9 SBCM_C_N N013 10
C5 N013 0 1200p
D10 N013 N019 idealD
D11 N016 N013 idealD
R16 N023 0 50
R17 N016 0 50
F4 0 N014 V10 -1
R18 N014 0 1e3
V10 N008 N009 0
S4 N010 N009 CM_C_N 0 cmSW
V11 CM_C_N N014 2
C6 N014 0 600n
D12 N014 N020 idealD
D13 P002 N014 idealD
R19 N024 0 50
R20 P002 0 50
D14 Cathode N010 mainIV1
V12 N019 N023 100
V13 N020 N024 100
R21 N013 0 1e6
R22 N014 0 1e9
D15 N006 Cathode mainIV2
D16 N006 Cathode mainIV3
D17 Cathode N010 mainIV2
D18 Cathode N010 mainIV3
.model D D
.model idealD D(Is=1e-14 N=0.1 Rs=0.001 )
.model mainIV D(Is=8.4e-16 N=47.12 Rs=7.5085 )
.model sbcmSW SW(Ron=0.001 Roff=30 Von=40 Voff=0)
.model cmSW SW(Ron=0.001 Roff=11 Von=6 Voff=0)
.model mainIV1 D(Is=4.6e-16 N=63.37 Rs=6.6034)
.model mainIV2 D(Is=1.56e-15 N=87.13 Rs=4.4012)
.model mainIV3 D(Is=1e-20 N=83.01 Rs=4.2)
.ic v(snap_c)=0
.ic v(snap_c_N)=0
.ends 0603_82356050100
******
.subckt 0603_82356050220 Anode Cathode
L1 Anode N001 0.74n
C1 N001 N002 26.5p
R1 N002 Cathode 0.548
R2 N001 Cathode 1e7
D1 N001 Positive idealD
D2 N006 Cathode mainIV
F1 0 N011 V2 +1
R3 N011 0 1e3
V2 Positive N003 0
S1 N004 N003 SBCM_C 0 sbcmSW
V3 SBCM_C N011 15
C2 N011 0 650p
D3 N011 N017 idealD
D4 N015 N011 idealD
R4 N021 0 50
R5 N015 0 50
F2 0 N012 V4 +1
R6 N012 0 1e3
V4 N004 N005 0
S2 N006 N005 CM_C 0 cmSW
V5 CM_C N012 1.625
C3 N012 0 440.9n
D5 N012 N018 idealD
D6 P001 N012 idealD
R7 N022 0 50
R8 P001 0 50
D7 N006 Cathode mainIV1
V6 N017 N021 100
V7 N018 N022 100
R9 N011 0 1e9
R10 N012 0 1e6
D8 Negative N001 idealD
D9 Cathode N010 mainIV
F3 0 N013 V8 -1
R15 N013 0 1e3
V8 Negative N007 0
S3 N008 N007 SBCM_C_N 0 sbcmSW
V9 SBCM_C_N N013 15
C5 N013 0 650p
D10 N013 N019 idealD
D11 N016 N013 idealD
R16 N023 0 50
R17 N016 0 50
F4 0 N014 V10 -1
R18 N014 0 1e3
V10 N008 N009 0
S4 N010 N009 CM_C_N 0 cmSW
V11 CM_C_N N014 1.625
C6 N014 0 440.9n
D12 N014 N020 idealD
D13 P002 N014 idealD
R19 N024 0 50
R20 P002 0 50
D14 Cathode N010 mainIV1
V12 N019 N023 100
V13 N020 N024 100
R21 N013 0 1e6
R22 N014 0 1e9
D15 N006 Cathode mainIV2
D16 N006 Cathode mainIV3
D17 Cathode N010 mainIV2
D18 Cathode N010 mainIV3
.model D D
.model idealD D(Is=1e-14 N=0.1 Rs=0.001 )
.model mainIV D(Is=8.4e-16 N=37.57 Rs=14.5071 )
.model sbcmSW SW(Ron=0.001 Roff=35 Von=60 Voff=0)
.model cmSW SW(Ron=0.001 Roff=16 Von=4.5 Voff=0)
.model mainIV1 D(Is=4.6e-16 N=45.23 Rs=2.2843)
.model mainIV2 D(Is=1.56e-15 N=57.58 Rs=1.09)
.model mainIV3 D(Is=1e-20 N=53.93 Rs=1.207)
.ic v(snap_c)=0
.ic v(snap_c_N)=0
.ends 0603_82356050220
******
.subckt 0603_82356050560 Anode Cathode
L1 Anode N001 0.57n
C1 N001 N002 59p
R1 N002 Cathode 0.504
R2 N001 Cathode 1e7
D1 N001 Positive idealD
D2 N006 Cathode mainIV
F1 0 N011 V2 +1
R3 N011 0 1e3
V2 Positive N003 0
S1 N004 N003 SBCM_C 0 sbcmSW
V3 SBCM_C N011 9.25
C2 N011 0 900p
D3 N011 N017 idealD
D4 N015 N011 idealD
R4 N021 0 50
R5 N015 0 50
F2 0 N012 V4 +1
R6 N012 0 1e3
V4 N004 N005 0
S2 N006 N005 CM_C 0 cmSW
V5 CM_C N012 1.75
C3 N012 0 288n
D5 N012 N018 idealD
D6 P001 N012 idealD
R7 N022 0 50
R8 P001 0 50
D7 N006 Cathode mainIV1
V6 N017 N021 100
V7 N018 N022 100
R9 N011 0 1e9
R10 N012 0 1e6
D8 Negative N001 idealD
D9 Cathode N010 mainIV
F3 0 N013 V8 -1
R15 N013 0 1e3
V8 Negative N007 0
S3 N008 N007 SBCM_C_N 0 sbcmSW
V9 SBCM_C_N N013 9.25
C5 N013 0 900p
D10 N013 N019 idealD
D11 N016 N013 idealD
R16 N023 0 50
R17 N016 0 50
F4 0 N014 V10 -1
R18 N014 0 1e3
V10 N008 N009 0
S4 N010 N009 CM_C_N 0 cmSW
V11 CM_C_N N014 1.75
C6 N014 0 288n
D12 N014 N020 idealD
D13 P002 N014 idealD
R19 N024 0 50
R20 P002 0 50
D14 Cathode N010 mainIV1
V12 N019 N023 100
V13 N020 N024 100
R21 N013 0 1e6
R22 N014 0 1e9
D15 N006 Cathode mainIV2
D16 N006 Cathode mainIV3
D17 Cathode N010 mainIV2
D18 Cathode N010 mainIV3
.model D D
.model idealD D(Is=1e-14 N=0.1 Rs=0.001 )
.model mainIV D(Is=8e-16 N=39.5 Rs=5.15 )
.model sbcmSW SW(Ron=0.001 Roff=38 Von=37 Voff=0)
.model cmSW SW(Ron=0.001 Roff=18.4 Von=5 Voff=0)
.model mainIV1 D(Is=5e-16 N=47.5 Rs=2.18)
.model mainIV2 D(Is=1.56e-15 N=58.2 Rs=1.36)
.model mainIV3 D(Is=2e-15 N=72 Rs=0.81)
.ic v(snap_c)=0
.ic v(snap_c_N)=0
.ends 0603_82356050560
******
.subckt 0603_82356120050 Anode Cathode
L1 Anode N001 0.57n
C1 N001 N002 6.1p
R1 N002 Cathode 2.54
R2 N001 Cathode 1e7
D1 N001 Positive idealD
D2 N006 Cathode mainIV
F1 0 N011 V2 +1
R3 N011 0 1e3
V2 Positive N003 0
S1 N004 N003 SBCM_C 0 sbcmSW
V3 SBCM_C N011 11.25
C2 N011 0 1600p
D3 N011 N017 idealD
D4 N015 N011 idealD
R4 N021 0 50
R5 N015 0 50
F2 0 N012 V4 +1
R6 N012 0 1e3
V4 N004 N005 0
S2 N006 N005 CM_C 0 cmSW
V5 CM_C N012 1.35
C3 N012 0 2500n
D5 N012 N018 idealD
D6 P001 N012 idealD
R7 N022 0 50
R8 P001 0 50
D7 N006 Cathode mainIV1
V6 N017 N021 100
V7 N018 N022 100
R9 N011 0 1e9
R10 N012 0 1e6
D8 Negative N001 idealD
D9 Cathode N010 mainIV
F3 0 N013 V8 -1
R15 N013 0 1e3
V8 Negative N007 0
S3 N008 N007 SBCM_C_N 0 sbcmSW
V9 SBCM_C_N N013 11.25
C5 N013 0 1600p
D10 N013 N019 idealD
D11 N016 N013 idealD
R16 N023 0 50
R17 N016 0 50
F4 0 N014 V10 -1
R18 N014 0 1e3
V10 N008 N009 0
S4 N010 N009 CM_C_N 0 cmSW
V11 CM_C_N N014 1.35
C6 N014 0 2500n
D12 N014 N020 idealD
D13 P002 N014 idealD
R19 N024 0 50
R20 P002 0 50
D14 Cathode N010 mainIV1
V12 N019 N023 100
V13 N020 N024 100
R21 N013 0 1e6
R22 N014 0 1e9
D15 N006 Cathode mainIV2
D16 N006 Cathode mainIV3
D17 Cathode N010 mainIV2
D18 Cathode N010 mainIV3
.model D D
.model idealD D(Is=1e-14 N=0.1 Rs=0.001 )
.model mainIV D(Is=1.46e-15 N=72.76 Rs=20.88 )
.model sbcmSW SW(Ron=0.001 Roff=40 Von=45 Voff=0)
.model cmSW SW(Ron=0.001 Roff=80 Von=3.4 Voff=0)
.model mainIV1 D(Is=6e-16 N=97.87 Rs=11.6042)
.model mainIV2 D(Is=5e-16 N=141.054 Rs=10.8046)
.model mainIV3 D(Is=1e-20 N=147.61 Rs=16.9017)
.ic v(snap_c)=0
.ic v(snap_c_N)=0
.ends 0603_82356120050
******
.subckt 0603_82356120100 Anode Cathode
L1 Anode N001 0.67n
C1 N001 N002 10.2p
R1 N002 Cathode 1.45
R2 N001 Cathode 1e7
D1 N001 Positive idealD
D2 N006 Cathode mainIV
F1 0 N011 V2 +1
R3 N011 0 1e3
V2 Positive N003 0
S1 N004 N003 SBCM_C 0 sbcmSW
V3 SBCM_C N011 7
C2 N011 0 1500p
D3 N011 N017 idealD
D4 N015 N011 idealD
R4 N021 0 50
R5 N015 0 50
F2 0 N012 V4 +1
R6 N012 0 1e3
V4 N004 N005 0
S2 N006 N005 CM_C 0 cmSW
V5 CM_C N012 1.375
C3 N012 0 1120n
D5 N012 N018 idealD
D6 P001 N012 idealD
R7 N022 0 50
R8 P001 0 50
D7 N006 Cathode mainIV1
V6 N017 N021 100
V7 N018 N022 100
R9 N011 0 1e9
R10 N012 0 1e6
D8 Negative N001 idealD
D15 N006 Cathode mainIV2
D16 N006 Cathode mainIV3
D9 Cathode N010 mainIV
F3 0 N013 V1 -1
R11 N013 0 1e3
V1 Negative N007 0
S3 N008 N007 SBCM_C_N 0 sbcmSW
V8 SBCM_C_N N013 7
C4 N013 0 1500p
D10 N013 N019 idealD
D11 N016 N013 idealD
R12 N023 0 50
R13 N016 0 50
F4 0 N014 V9 -1
R14 N014 0 1e3
V9 N008 N009 0
S4 N010 N009 CM_C_N 0 cmSW
V10 CM_C_N N014 1.375
C5 N014 0 1120n
D12 N014 N020 idealD
D13 P002 N014 idealD
R15 N024 0 50
R16 P002 0 50
D14 Cathode N010 mainIV1
V11 N019 N023 100
V12 N020 N024 100
R17 N013 0 1e9
R18 N014 0 1e6
D17 Cathode N010 mainIV2
D18 Cathode N010 mainIV3
.model D D
.model idealD D(Is=1e-14 N=0.1 Rs=0.001 )
.model mainIV D(Is=1.62e-15 N=59.9 Rs=20.88 )
.model sbcmSW SW(Ron=0.001 Roff=50 Von=28 Voff=0)
.model cmSW SW(Ron=0.001 Roff=40.8 Von=3.5 Voff=0)
.model mainIV1 D(Is=6e-16 N=72.64 Rs=6.8066)
.model mainIV2 D(Is=5e-16 N=102.049 Rs=5.005)
.model mainIV3 D(Is=1e-20 N=110.13 Rs=4.4078)
.ic v(snap_c)=0
.ic v(snap_c_N)=0
.ends 0603_82356120100
******
.subckt 0603_82356120220 Anode Cathode
L1 Anode N001 0.95n
C1 N001 N002 17.5p
R1 N002 Cathode 1.1
R2 N001 Cathode 1e7
D1 N001 Positive idealD
D2 N010 Cathode mainIV
F1 0 N013 V2 +1
R3 N013 0 1e3
V2 Positive N007 0
S1 N008 N007 SBCM_C 0 sbcmSW
V3 SBCM_C N013 7.5
C2 N013 0 1000p
D3 N013 N019 idealD
D4 N016 N013 idealD
R4 N023 0 50
R5 N016 0 50
F2 0 N014 V4 +1
R6 N014 0 1e3
V4 N008 N009 0
S2 N010 N009 CM_C 0 cmSW
V5 CM_C N014 1.25
C3 N014 0 1600n
D5 N014 N020 idealD
D6 P001 N014 idealD
R7 N024 0 50
R8 P001 0 50
D7 N010 Cathode mainIV1
V6 N019 N023 100
V7 N020 N024 100
R9 N013 0 1e9
R10 N014 0 1e6
D8 Negative N001 idealD
D9 Cathode N006 mainIV
F3 0 N011 V8 -1
R15 N011 0 1e3
V8 Negative N003 0
S3 N004 N003 SBCM_C_N 0 sbcmSW
V9 SBCM_C_N N011 7.5
C5 N011 0 1000p
D10 N011 N017 idealD
D11 N015 N011 idealD
R16 N021 0 50
R17 N015 0 50
F4 0 N012 V10 -1
R18 N012 0 1e3
V10 N004 N005 0
S4 N006 N005 CM_C_N 0 cmSW
V11 CM_C_N N012 1.25
C6 N012 0 1600n
D12 N012 N018 idealD
D13 P002 N012 idealD
R19 N022 0 50
R20 P002 0 50
D14 Cathode N006 mainIV1
V12 N017 N021 100
V13 N018 N022 100
R21 N011 0 1e6
R22 N012 0 1e9
D15 N010 Cathode mainIV2
D16 N010 Cathode mainIV3
D17 Cathode N006 mainIV2
D18 Cathode N006 mainIV3
.model D D
.model idealD D(Is=1e-14 N=0.1 Rs=0.001 )
.model mainIV D(Is=9e-16 N=37.6 Rs=20.88 )
.model sbcmSW SW(Ron=0.001 Roff=30 Von=30 Voff=0)
.model cmSW SW(Ron=0.001 Roff=60 Von=3 Voff=0)
.model mainIV1 D(Is=6e-16 N=45.8 Rs=4.4078)
.model mainIV2 D(Is=5e-16 N=58 Rs=3.22)
.model mainIV3 D(Is=1e-20 N=65 Rs=8.7)
.ic v(snap_c)=0
.ic v(snap_c_N)=0
.ends 0603_82356120220
******
.subckt 0603_82356120330 Anode Cathode
L1 Anode N001 1.1n
C1 N001 N002 26.5p
R1 N002 Cathode 0.34
R2 N001 Cathode 1e7
D1 N001 Positive idealD
D2 N006 Cathode mainIV
F1 0 N011 V2 +1
R3 N011 0 1e3
V2 Positive N003 0
S1 N004 N003 SBCM_C 0 sbcmSW
V3 SBCM_C N011 5
C2 N011 0 1200p
D3 N011 N017 idealD
D4 N015 N011 idealD
R4 N021 0 50
R5 N015 0 50
F2 0 N012 V4 +1
R6 N012 0 1e3
V4 N004 N005 0
S2 N006 N005 CM_C 0 cmSW
V5 CM_C N012 1.25
C3 N012 0 1220n
D5 N012 N018 idealD
D6 P001 N012 idealD
R7 N022 0 50
R8 P001 0 50
D7 N006 Cathode mainIV1
V6 N017 N021 100
V7 N018 N022 100
R9 N011 0 1e9
R10 N012 0 1e6
D8 Negative N001 idealD
D9 Cathode N010 mainIV
F3 0 N013 V8 -1
R15 N013 0 1e3
V8 Negative N007 0
S3 N008 N007 SBCM_C_N 0 sbcmSW
V9 SBCM_C_N N013 5
C5 N013 0 1200p
D10 N013 N019 idealD
D11 N016 N013 idealD
R16 N023 0 50
R17 N016 0 50
F4 0 N014 V10 -1
R18 N014 0 1e3
V10 N008 N009 0
S4 N010 N009 CM_C_N 0 cmSW
V11 CM_C_N N014 1.25
C6 N014 0 1220n
D12 N014 N020 idealD
D13 P002 N014 idealD
R19 N024 0 50
R20 P002 0 50
D14 Cathode N010 mainIV1
V12 N019 N023 100
V13 N020 N024 100
R21 N013 0 1e6
R22 N014 0 1e9
D15 N006 Cathode mainIV2
D16 N006 Cathode mainIV3
D17 Cathode N010 mainIV2
D18 Cathode N010 mainIV3
D19 N006 Cathode mainIV4
D20 Cathode N010 mainIV4
.model D D
.model idealD D(Is=1e-14 N=0.1 Rs=0.001 )
.model mainIV D(Is=8.4e-16 N=32.05 Rs=11 )